40
Properties=species:S:1:pos:R:3 #=T CELL(abcABC):=T 1.889726e+02=T 90.00000=T Traj:=T positionsangstrom=T Step:=T 0=T Bead:=T pbc="F F F"
C      -40.81440000     -33.40240000     -71.27050000
C      -41.68850000     -33.90320000     -70.34770000
C      -42.61930000     -34.93490000     -70.76900000
C      -42.69090000     -35.44870000     -72.09780000
C      -41.80140000     -34.91010000     -73.00090000
C      -40.85200000     -33.96690000     -72.55390000
H      -40.07540000     -32.77310000     -70.87350000
H      -43.31920000     -35.32730000     -70.00700000
H      -41.83060000     -35.11610000     -74.07970000
H      -40.16910000     -33.66290000     -73.33020000
C      -43.49270000     -36.65780000     -72.36750000
H      -43.99410000     -37.06910000     -71.43770000
H      -42.88500000     -37.44770000     -72.84830000
C      -41.84060000     -33.45800000     -68.94480000
H      -42.46880000     -34.10920000     -68.34800000
H      -40.79610000     -33.30260000     -68.47260000
S      -44.90140000     -36.52250000     -73.51390000
S      -42.59450000     -31.73090000     -68.82040000
C      -45.77300000     -34.97840000     -73.07640000
H      -44.94010000     -34.26240000     -72.79810000
H      -46.23800000     -34.56760000     -73.97180000
C      -44.00280000     -31.92900000     -70.07310000
H      -43.77460000     -32.23400000     -71.08520000
H      -44.22180000     -30.87560000     -70.30170000
C      -45.28710000     -32.72820000     -69.67710000
H      -45.36120000     -33.81720000     -70.05280000
H      -45.22550000     -32.77160000     -68.57570000
C      -46.87840000     -35.08270000     -71.98930000
H      -46.42160000     -35.29350000     -71.06040000
H      -47.55840000     -35.94170000     -72.21640000
C      -47.78290000     -33.89200000     -71.89820000
C      -48.87130000     -33.81360000     -72.70920000
C      -47.55800000     -32.66340000     -71.13880000
H      -49.15200000     -34.65610000     -73.33210000
C      -48.70410000     -31.79540000     -71.38950000
C      -46.59850000     -32.10700000     -70.19900000
C      -47.13190000     -30.84960000     -69.77770000
S      -49.89730000     -32.43700000     -72.44790000
S      -48.64900000     -30.32600000     -70.49980000
H      -46.71450000     -30.16310000     -69.05670000
