40
Properties=species:S:1:pos:R:3 #=T CELL(abcABC):=T 1.889726e+02=T 90.00000=T Traj:=T positionsangstrom=T Step:=T 0=T Bead:=T pbc="F F F"
C      -45.17620000     -29.51010000     -68.74700000
C      -44.46830000     -30.39620000     -69.58900000
C      -44.68760000     -30.28600000     -70.97260000
C      -45.78310000     -29.62630000     -71.50130000
C      -46.52960000     -28.82390000     -70.61770000
C      -46.20460000     -28.73970000     -69.30000000
H      -45.01950000     -29.42420000     -67.68630000
H      -44.14860000     -30.97050000     -71.64490000
H      -47.36900000     -28.35460000     -71.05410000
H      -46.84670000     -28.05640000     -68.67500000
C      -46.13630000     -29.68180000     -72.98810000
H      -45.23080000     -29.71360000     -73.60520000
H      -46.77210000     -28.78240000     -73.24090000
C      -43.33120000     -31.26800000     -69.04890000
H      -42.53380000     -31.37110000     -69.79130000
H      -42.99180000     -30.79270000     -68.05050000
S      -47.38830000     -31.11940000     -73.34600000
S      -43.91690000     -33.04270000     -68.76120000
C      -46.17310000     -32.59220000     -73.51860000
H      -45.86500000     -32.64240000     -74.62230000
H      -45.25240000     -32.28860000     -73.03210000
C      -45.46450000     -33.01560000     -69.80880000
H      -45.05890000     -32.78520000     -70.76660000
H      -46.04680000     -32.17440000     -69.54360000
C      -46.06910000     -34.40350000     -69.66070000
H      -46.12290000     -34.66770000     -68.60030000
H      -47.10950000     -34.51250000     -69.99600000
C      -46.76160000     -33.80470000     -72.90790000
H      -47.79460000     -33.94850000     -73.31130000
H      -46.97000000     -33.52450000     -71.86290000
C      -45.98360000     -35.08710000     -72.93160000
C      -45.81190000     -35.86230000     -74.09270000
C      -45.26870000     -35.71040000     -71.80970000
H      -46.26680000     -35.70200000     -75.01740000
C      -44.57660000     -36.84610000     -72.15260000
C      -45.24970000     -35.51040000     -70.35210000
C      -44.49260000     -36.47250000     -69.73050000
S      -44.97290000     -37.41100000     -73.81880000
S      -43.76910000     -37.68410000     -70.76890000
H      -44.26530000     -36.54030000     -68.70640000
