40
Properties=species:S:1:pos:R:3 #=T CELL(abcABC):=T 1.889726e+02=T 90.00000=T Traj:=T positionsangstrom=T Step:=T 0=T Bead:=T pbc="F F F"
C      -47.86740000     -33.85310000     -71.40340000
C      -47.64800000     -34.01810000     -70.00060000
C      -47.20390000     -32.86680000     -69.29110000
C      -46.99700000     -31.64530000     -69.97930000
C      -47.09930000     -31.58960000     -71.37920000
C      -47.55670000     -32.72450000     -72.10690000
H      -48.21780000     -34.73810000     -71.83480000
H      -47.14720000     -32.98900000     -68.21530000
H      -46.82220000     -30.63170000     -71.87950000
H      -47.74730000     -32.66850000     -73.18090000
C      -46.53550000     -30.46520000     -69.15710000
H      -46.60440000     -30.69110000     -68.11850000
H      -47.06430000     -29.64430000     -69.45920000
C      -47.62370000     -35.36890000     -69.28450000
H      -47.19160000     -35.18640000     -68.32450000
H      -48.62200000     -35.69600000     -69.06200000
S      -44.76570000     -29.99880000     -69.45940000
S      -46.68490000     -36.63410000     -70.18010000
C      -43.81530000     -31.65500000     -69.30260000
H      -43.27580000     -31.49030000     -68.32190000
H      -44.63080000     -32.41700000     -69.07470000
C      -44.90490000     -36.30950000     -69.61470000
H      -44.28480000     -37.16180000     -69.96850000
H      -44.93860000     -36.39020000     -68.51290000
C      -44.41070000     -35.02540000     -70.17490000
H      -45.03640000     -34.16910000     -69.71860000
H      -43.36690000     -34.88030000     -69.71610000
C      -42.92590000     -32.08240000     -70.47050000
H      -42.30810000     -32.98210000     -70.20800000
H      -42.18620000     -31.37040000     -70.80900000
C      -43.52940000     -32.38530000     -71.79600000
C      -43.33030000     -31.51310000     -72.79180000
C      -43.97760000     -33.66900000     -72.29120000
H      -42.90070000     -30.48400000     -72.73660000
C      -44.25270000     -33.64760000     -73.68100000
C      -44.38000000     -34.88730000     -71.67420000
C      -44.67730000     -35.89720000     -72.60510000
S      -43.88300000     -32.09180000     -74.36420000
S      -44.63760000     -35.28720000     -74.25780000
H      -44.97300000     -36.93870000     -72.70960000
