40
Properties=species:S:1:pos:R:3 #=T CELL(abcABC):=T 1.889726e+02=T 90.00000=T Traj:=T positionsangstrom=T Step:=T 0=T Bead:=T pbc="F F F"
C      -42.28390000     -34.82610000     -68.32000000
C      -43.45210000     -34.03260000     -68.32090000
C      -44.63790000     -34.64660000     -68.72410000
C      -44.67850000     -35.99570000     -69.07210000
C      -43.49020000     -36.77880000     -69.04140000
C      -42.27450000     -36.13280000     -68.72630000
H      -41.35840000     -34.37500000     -67.86060000
H      -45.63680000     -34.19290000     -68.66260000
H      -43.54170000     -37.84970000     -69.03020000
H      -41.45260000     -36.81400000     -68.65710000
C      -46.04320000     -36.77050000     -69.22560000
H      -46.83720000     -36.18970000     -68.71150000
H      -45.90250000     -37.73350000     -68.71790000
C      -43.46220000     -32.57120000     -67.84240000
H      -44.51260000     -32.33250000     -67.78080000
H      -43.07400000     -32.49520000     -66.83750000
S      -46.58180000     -37.08060000     -70.99130000
S      -42.68380000     -31.49130000     -69.17260000
C      -47.05330000     -35.42010000     -71.69580000
H      -47.71400000     -35.40990000     -72.56430000
H      -47.56280000     -34.73420000     -70.96040000
C      -43.77050000     -31.75580000     -70.66070000
H      -43.60710000     -32.75420000     -71.11180000
H      -43.28140000     -31.04520000     -71.34570000
C      -45.25960000     -31.47670000     -70.60120000
H      -45.81560000     -32.35810000     -70.17720000
H      -45.31650000     -30.48630000     -70.13180000
C      -45.79410000     -34.56890000     -72.18800000
H      -45.07690000     -35.26870000     -72.65650000
H      -45.25420000     -34.04570000     -71.40570000
C      -46.27070000     -33.53090000     -73.18090000
C      -46.85740000     -33.86810000     -74.40630000
C      -46.34920000     -32.09610000     -72.99190000
H      -46.92210000     -34.91100000     -74.81040000
C      -46.90830000     -31.47310000     -74.09540000
C      -45.71160000     -31.22520000     -72.03750000
C      -45.74920000     -29.93960000     -72.54160000
S      -47.45500000     -32.51220000     -75.31120000
S      -46.78930000     -29.75520000     -73.98770000
H      -45.41350000     -29.02880000     -71.91350000
