40
Properties=species:S:1:pos:R:3 #=T CELL(abcABC):=T 1.889726e+02=T 90.00000=T Traj:=T positionsangstrom=T Step:=T 0=T Bead:=T pbc="F F F"
C      -48.16120000     -35.69660000     -69.73380000
C      -48.57300000     -34.87340000     -70.81220000
C      -48.72240000     -33.51840000     -70.62520000
C      -48.25940000     -32.88330000     -69.41670000
C      -47.60400000     -33.67080000     -68.39790000
C      -47.64620000     -35.06960000     -68.61060000
H      -48.32720000     -36.81770000     -69.70020000
H      -49.00500000     -32.99100000     -71.49280000
H      -47.19970000     -33.24370000     -67.42400000
H      -47.18310000     -35.64370000     -67.80970000
C      -48.22860000     -31.41670000     -69.32120000
H      -47.64450000     -31.04570000     -68.37590000
H      -49.21720000     -30.96230000     -69.27610000
C      -48.75990000     -35.56420000     -72.16960000
H      -48.51570000     -36.60370000     -72.07450000
H      -49.77040000     -35.46650000     -72.52770000
S      -47.26840000     -30.43520000     -70.72270000
S      -47.71640000     -34.88560000     -73.59670000
C      -45.66490000     -31.22560000     -70.31080000
H      -45.11150000     -30.61210000     -69.50800000
H      -45.75350000     -32.28740000     -69.96700000
C      -46.04770000     -34.74740000     -72.82130000
H      -45.73240000     -35.62760000     -72.30600000
H      -46.18140000     -34.09410000     -71.94270000
C      -44.92070000     -34.06480000     -73.63910000
H      -44.81860000     -34.53100000     -74.60130000
H      -45.29000000     -33.07280000     -73.83240000
C      -44.76690000     -31.23260000     -71.62890000
H      -44.61020000     -30.12710000     -71.89580000
H      -45.41070000     -31.63520000     -72.44400000
C      -43.44840000     -31.86740000     -71.40470000
C      -42.49430000     -31.35040000     -70.55280000
C      -43.01630000     -33.10320000     -72.04260000
H      -42.56030000     -30.34530000     -70.23500000
C      -41.73210000     -33.48170000     -71.63090000
C      -43.60340000     -34.13570000     -72.85900000
C      -42.79400000     -35.24990000     -72.94750000
S      -40.97510000     -32.27500000     -70.57170000
S      -41.30430000     -35.06340000     -72.11480000
H      -43.08900000     -36.17420000     -73.49160000
