40
Properties=species:S:1:pos:R:3 #=T CELL(abcABC):=T 1.889726e+02=T 90.00000=T Traj:=T positionsangstrom=T Step:=T 0=T Bead:=T pbc="F F F"
C      -47.68870000     -33.81150000     -71.40710000
C      -47.49110000     -33.98110000     -70.03670000
C      -47.09970000     -32.80360000     -69.30740000
C      -47.01040000     -31.57260000     -69.94690000
C      -47.33120000     -31.43560000     -71.31960000
C      -47.71550000     -32.54690000     -72.00840000
H      -47.71900000     -34.77580000     -71.96850000
H      -46.83280000     -32.94840000     -68.22010000
H      -47.39030000     -30.44730000     -71.83660000
H      -48.03200000     -32.40020000     -73.00600000
C      -46.56280000     -30.33260000     -69.33440000
H      -46.79120000     -30.10810000     -68.22490000
H      -47.04580000     -29.51700000     -69.89730000
C      -47.69030000     -35.21710000     -69.25140000
H      -47.32220000     -35.13220000     -68.24420000
H      -48.77450000     -35.51100000     -69.26500000
S      -44.59510000     -30.11020000     -69.44690000
S      -46.82220000     -36.72320000     -69.99730000
C      -43.89030000     -31.74130000     -69.37240000
H      -43.30740000     -31.89560000     -68.53420000
H      -44.72190000     -32.38860000     -69.34080000
C      -45.07580000     -36.41790000     -69.59970000
H      -44.46290000     -37.22790000     -69.82080000
H      -45.00710000     -36.30830000     -68.48780000
C      -44.39530000     -35.14980000     -70.13630000
H      -44.73190000     -34.25510000     -69.54370000
H      -43.42520000     -35.32440000     -69.81180000
C      -42.97890000     -32.07950000     -70.58210000
H      -42.45650000     -32.96260000     -70.30310000
H      -42.16950000     -31.30350000     -70.48720000
C      -43.61440000     -32.23420000     -71.87740000
C      -43.48270000     -31.42250000     -72.93450000
C      -44.04320000     -33.60980000     -72.30730000
H      -43.14280000     -30.39530000     -72.85800000
C      -44.19700000     -33.64920000     -73.66910000
C      -44.35270000     -34.85150000     -71.61320000
C      -44.61650000     -35.87160000     -72.51940000
S      -43.82200000     -32.23540000     -74.49140000
S      -44.52260000     -35.29090000     -74.23300000
H      -44.67770000     -36.98970000     -72.34160000
