40
Properties=species:S:1:pos:R:3 #=T CELL(abcABC):=T 1.889726e+02=T 90.00000=T Traj:=T positionsangstrom=T Step:=T 0=T Bead:=T pbc="F F F"
C      -43.44060000     -35.34880000     -67.82260000
C      -44.36170000     -34.34470000     -67.93010000
C      -45.58390000     -34.64870000     -68.54450000
C      -45.90970000     -35.94400000     -68.94630000
C      -44.94760000     -36.92750000     -68.74230000
C      -43.68850000     -36.66500000     -68.22410000
H      -42.41250000     -35.29110000     -67.46040000
H      -46.31590000     -33.80140000     -68.56460000
H      -45.31350000     -37.96550000     -69.02000000
H      -42.86590000     -37.37380000     -68.06380000
C      -47.36290000     -36.30830000     -69.34520000
H      -48.07500000     -35.53900000     -69.02640000
H      -47.71540000     -37.28500000     -68.99950000
C      -44.01500000     -32.88270000     -67.67150000
H      -44.97410000     -32.26640000     -67.77780000
H      -43.71550000     -32.86750000     -66.63530000
S      -47.36440000     -36.66720000     -71.20300000
S      -42.69200000     -32.22680000     -68.79410000
C      -47.29180000     -34.96100000     -72.02350000
H      -47.92470000     -35.10250000     -72.94270000
H      -47.80520000     -34.19840000     -71.43060000
C      -43.57380000     -32.42300000     -70.42470000
H      -43.81460000     -33.56230000     -70.58350000
H      -42.77530000     -32.14350000     -71.13010000
C      -44.87060000     -31.57760000     -70.56960000
H      -45.84540000     -32.08190000     -70.22010000
H      -44.73400000     -30.71130000     -69.98580000
C      -45.90220000     -34.41800000     -72.30900000
H      -45.31810000     -35.35170000     -72.65230000
H      -45.41950000     -34.09430000     -71.35020000
C      -45.95700000     -33.35910000     -73.36240000
C      -46.34620000     -33.57540000     -74.67140000
C      -45.58480000     -31.99200000     -73.18590000
H      -46.70970000     -34.43670000     -75.26500000
C      -45.61190000     -31.26910000     -74.33510000
C      -45.18020000     -31.18940000     -72.06670000
C      -45.03260000     -29.89850000     -72.46990000
S      -46.13750000     -32.09490000     -75.70730000
S      -45.33220000     -29.58090000     -74.15510000
H      -44.67490000     -29.09150000     -71.85010000
