40
Properties=species:S:1:pos:R:3 #=T CELL(abcABC):=T 1.889726e+02=T 90.00000=T Traj:=T positionsangstrom=T Step:=T 0=T Bead:=T pbc="F F F"
C      -43.68080000     -35.45640000     -68.71010000
C      -44.46420000     -34.41600000     -68.15350000
C      -45.86200000     -34.40820000     -68.33840000
C      -46.41770000     -35.45380000     -69.06240000
C      -45.63460000     -36.47270000     -69.63740000
C      -44.24930000     -36.47570000     -69.45400000
H      -42.58520000     -35.45500000     -68.47460000
H      -46.48270000     -33.69340000     -67.96680000
H      -46.00170000     -37.30100000     -70.31210000
H      -43.60520000     -37.17250000     -70.01390000
C      -47.85760000     -35.62600000     -69.26540000
H      -48.32050000     -34.70240000     -69.05240000
H      -48.41740000     -36.43610000     -68.78680000
C      -43.90650000     -33.19910000     -67.35160000
H      -44.76310000     -32.72390000     -66.98370000
H      -43.28790000     -33.51600000     -66.48040000
S      -48.35970000     -36.03770000     -71.05370000
S      -42.95380000     -31.99870000     -68.39380000
C      -47.78450000     -34.56480000     -72.01070000
H      -48.41840000     -34.44450000     -72.87780000
H      -48.04250000     -33.82660000     -71.23590000
C      -43.49870000     -32.17170000     -70.15860000
H      -43.13820000     -33.02310000     -70.67410000
H      -43.02690000     -31.25480000     -70.53790000
C      -44.92870000     -31.90990000     -70.48760000
H      -45.66240000     -32.71150000     -70.23910000
H      -45.25410000     -31.17340000     -69.88780000
C      -46.19180000     -34.63900000     -72.22530000
H      -46.00170000     -35.64330000     -72.54650000
H      -45.68310000     -34.41520000     -71.30700000
C      -45.71800000     -33.63830000     -73.39320000
C      -45.70790000     -33.91890000     -74.69930000
C      -45.28860000     -32.31340000     -73.11640000
H      -46.10250000     -34.81210000     -75.16660000
C      -44.94100000     -31.65460000     -74.27200000
C      -45.03500000     -31.48070000     -71.93170000
C      -44.63770000     -30.12790000     -72.24520000
S      -45.19720000     -32.59000000     -75.66860000
S      -44.49310000     -29.92250000     -74.00340000
H      -44.59720000     -29.20470000     -71.69690000
