40
Properties=species:S:1:pos:R:3 #=T CELL(abcABC):=T 1.889726e+02=T 90.00000=T Traj:=T positionsangstrom=T Step:=T 0=T Bead:=T pbc="F F F"
C      -43.45680000     -35.32220000     -67.92900000
C      -44.44010000     -34.30910000     -67.99940000
C      -45.71080000     -34.66570000     -68.55590000
C      -46.08480000     -35.97060000     -68.83390000
C      -45.09570000     -36.90430000     -68.65650000
C      -43.76130000     -36.61400000     -68.25760000
H      -42.47790000     -35.09470000     -67.53330000
H      -46.48000000     -33.92020000     -68.70850000
H      -45.30980000     -37.94640000     -68.87350000
H      -42.93820000     -37.34310000     -68.16910000
C      -47.46160000     -36.22360000     -69.37080000
H      -48.11180000     -35.37940000     -69.16960000
H      -47.89030000     -37.11220000     -68.89510000
C      -44.05550000     -32.94300000     -67.58730000
H      -44.77550000     -32.21380000     -67.59050000
H      -43.55440000     -32.90210000     -66.62120000
S      -47.44190000     -36.59600000     -71.26560000
S      -42.77960000     -32.12440000     -68.79160000
C      -47.38120000     -34.93370000     -72.00080000
H      -47.99090000     -34.88510000     -72.89160000
H      -47.63560000     -34.14400000     -71.25700000
C      -43.43950000     -32.26140000     -70.56040000
H      -43.27470000     -33.24550000     -70.84360000
H      -42.83510000     -31.59650000     -71.07780000
C      -44.85240000     -31.74100000     -70.65200000
H      -45.53270000     -32.48810000     -70.30250000
H      -44.94640000     -30.93560000     -69.93470000
C      -45.92360000     -34.62160000     -72.47950000
H      -45.47090000     -35.31890000     -73.08550000
H      -45.37050000     -34.36250000     -71.59010000
C      -45.84070000     -33.43710000     -73.36250000
C      -46.16940000     -33.58770000     -74.72370000
C      -45.49890000     -32.04390000     -73.16590000
H      -46.38260000     -34.57050000     -75.16870000
C      -45.57040000     -31.22540000     -74.32770000
C      -45.15490000     -31.24560000     -72.01040000
C      -44.94570000     -29.93000000     -72.26230000
S      -46.13760000     -32.20780000     -75.73920000
S      -45.12590000     -29.56450000     -74.01970000
H      -44.56220000     -29.21030000     -71.54480000
