40
Properties=species:S:1:pos:R:3 #=T CELL(abcABC):=T 1.889726e+02=T 90.00000=T Traj:=T positionsangstrom=T Step:=T 0=T Bead:=T pbc="F F F"
C      -47.86350000     -35.67340000     -69.83010000
C      -48.33600000     -34.84380000     -70.87670000
C      -48.44300000     -33.46710000     -70.81550000
C      -48.24300000     -32.90200000     -69.52470000
C      -47.84220000     -33.74320000     -68.35570000
C      -47.62160000     -35.09590000     -68.58730000
H      -47.69010000     -36.70910000     -70.05630000
H      -48.67700000     -32.86610000     -71.71830000
H      -47.79720000     -33.21210000     -67.41900000
H      -47.17480000     -35.85340000     -67.88730000
C      -48.37950000     -31.41640000     -69.35760000
H      -48.09960000     -31.15540000     -68.38860000
H      -49.39400000     -31.15150000     -69.45270000
C      -48.77830000     -35.44940000     -72.28480000
H      -48.71910000     -36.57260000     -72.35820000
H      -49.80620000     -35.16960000     -72.60850000
S      -47.29670000     -30.44170000     -70.50980000
S      -47.59800000     -34.73320000     -73.52130000
C      -45.65400000     -31.31580000     -70.43080000
H      -45.21220000     -30.99080000     -69.53760000
H      -45.85400000     -32.35990000     -70.24060000
C      -45.97740000     -34.98280000     -72.74110000
H      -45.64870000     -36.00140000     -72.94340000
H      -46.11520000     -34.75930000     -71.64770000
C      -45.03240000     -34.01650000     -73.48390000
H      -44.94830000     -34.29020000     -74.52560000
H      -45.45380000     -32.93200000     -73.58850000
C      -44.79930000     -31.08570000     -71.66090000
H      -44.68120000     -30.08100000     -71.86820000
H      -45.27120000     -31.35430000     -72.61630000
C      -43.45830000     -31.84160000     -71.45040000
C      -42.51350000     -31.37330000     -70.62250000
C      -43.06110000     -33.11310000     -72.02810000
H      -42.75970000     -30.58810000     -69.91010000
C      -41.85770000     -33.56480000     -71.55050000
C      -43.64310000     -34.11820000     -72.90130000
C      -42.80580000     -35.14250000     -73.21510000
S      -41.07230000     -32.38960000     -70.40700000
S      -41.31480000     -35.07170000     -72.22180000
H      -43.15690000     -36.04200000     -73.70860000
