40
Properties=species:S:1:pos:R:3 #=T CELL(abcABC):=T 1.889726e+02=T 90.00000=T Traj:=T positionsangstrom=T Step:=T 0=T Bead:=T pbc="F F F"
C      -43.47910000     -35.38570000     -67.95190000
C      -44.42000000     -34.32790000     -68.05190000
C      -45.73380000     -34.64450000     -68.51930000
C      -46.13090000     -35.91640000     -68.82320000
C      -45.15990000     -36.86820000     -68.86970000
C      -43.86270000     -36.65520000     -68.39940000
H      -42.43780000     -35.31870000     -67.61570000
H      -46.42150000     -33.80330000     -68.52640000
H      -45.41910000     -37.82170000     -69.23010000
H      -43.13900000     -37.44130000     -68.32210000
C      -47.51490000     -36.13700000     -69.36830000
H      -48.29540000     -35.35910000     -69.10410000
H      -47.85760000     -37.07790000     -68.92780000
C      -44.11740000     -32.88120000     -67.56530000
H      -45.01020000     -32.23580000     -67.76490000
H      -43.80060000     -32.78100000     -66.55170000
S      -47.62940000     -36.48470000     -71.17690000
S      -42.75670000     -31.99450000     -68.63600000
C      -47.23730000     -34.88690000     -71.98040000
H      -47.91780000     -34.90720000     -72.88480000
H      -47.62710000     -34.00720000     -71.42580000
C      -43.47330000     -32.18940000     -70.31020000
H      -43.21940000     -33.21570000     -70.62930000
H      -42.85550000     -31.61150000     -71.04160000
C      -44.90480000     -31.79440000     -70.58330000
H      -45.54870000     -32.65060000     -70.47390000
H      -45.31330000     -31.01810000     -69.92600000
C      -45.72640000     -34.68730000     -72.44190000
H      -45.29580000     -35.63940000     -72.88850000
H      -44.96570000     -34.55190000     -71.64210000
C      -45.75700000     -33.47530000     -73.47040000
C      -46.06830000     -33.74590000     -74.79760000
C      -45.48870000     -32.09990000     -73.21250000
H      -46.22650000     -34.69340000     -75.31540000
C      -45.63600000     -31.28620000     -74.32680000
C      -45.09030000     -31.34930000     -72.05160000
C      -44.81020000     -30.02900000     -72.36970000
S      -46.05570000     -32.18290000     -75.81820000
S      -45.11500000     -29.66600000     -74.02920000
H      -44.67800000     -29.24540000     -71.68200000
