40
Properties=species:S:1:pos:R:3 #=T CELL(abcABC):=T 1.889726e+02=T 90.00000=T Traj:=T positionsangstrom=T Step:=T 0=T Bead:=T pbc="F F F"
C      -43.27080000     -35.38150000     -67.96690000
C      -44.24660000     -34.35980000     -67.98520000
C      -45.50060000     -34.68700000     -68.35560000
C      -45.87270000     -35.96890000     -68.84000000
C      -44.90950000     -36.95220000     -68.74850000
C      -43.61580000     -36.66720000     -68.29160000
H      -42.22320000     -35.24620000     -67.63240000
H      -46.18600000     -33.86850000     -68.38320000
H      -45.14660000     -37.92290000     -69.17580000
H      -42.87450000     -37.43460000     -68.13140000
C      -47.22280000     -36.27210000     -69.44710000
H      -47.88950000     -35.40530000     -69.23380000
H      -47.63290000     -37.17660000     -68.96840000
C      -43.89340000     -32.96320000     -67.63120000
H      -44.83090000     -32.36960000     -67.51200000
H      -43.33010000     -32.92820000     -66.70440000
S      -47.26340000     -36.68120000     -71.14960000
S      -42.76450000     -32.22990000     -68.95150000
C      -47.29420000     -35.07210000     -72.14390000
H      -47.64500000     -35.49160000     -73.09400000
H      -48.12430000     -34.52230000     -71.75330000
C      -43.67570000     -32.46840000     -70.51400000
H      -43.90020000     -33.53170000     -70.70420000
H      -42.95700000     -32.25220000     -71.27260000
C      -44.91510000     -31.49880000     -70.68530000
H      -45.76900000     -32.03590000     -70.26070000
H      -44.81200000     -30.59090000     -70.13330000
C      -45.87460000     -34.42460000     -72.21500000
H      -45.14320000     -35.13520000     -72.61060000
H      -45.54150000     -34.24470000     -71.22030000
C      -45.84820000     -33.32820000     -73.23370000
C      -46.13900000     -33.65960000     -74.54680000
C      -45.73550000     -31.85970000     -73.11020000
H      -46.31110000     -34.57660000     -75.11690000
C      -45.89180000     -31.18460000     -74.32660000
C      -45.14830000     -31.05680000     -72.08730000
C      -44.91890000     -29.79260000     -72.51470000
S      -46.35690000     -32.22780000     -75.57060000
S      -45.44760000     -29.46170000     -74.16480000
H      -44.53650000     -29.06020000     -71.79770000
