40
Properties=species:S:1:pos:R:3 #=T CELL(abcABC):=T 1.889726e+02=T 90.00000=T Traj:=T positionsangstrom=T Step:=T 0=T Bead:=T pbc="F F F"
C      -44.20410000     -36.08490000     -68.59440000
C      -44.85140000     -34.93970000     -68.19850000
C      -46.25230000     -34.80720000     -68.53200000
C      -46.96770000     -35.81820000     -69.17500000
C      -46.18750000     -36.92260000     -69.57500000
C      -44.82580000     -37.12340000     -69.28070000
H      -43.06110000     -36.13370000     -68.43270000
H      -46.75150000     -33.93790000     -68.20850000
H      -46.64560000     -37.76690000     -70.10770000
H      -44.43390000     -38.11190000     -69.48810000
C      -48.39650000     -35.58150000     -69.60660000
H      -48.92520000     -34.85280000     -69.02300000
H      -49.02550000     -36.48710000     -69.48470000
C      -44.03960000     -33.85860000     -67.35810000
H      -44.42410000     -33.82190000     -66.34000000
H      -42.96940000     -34.12680000     -67.33530000
S      -48.54300000     -35.42480000     -71.43520000
S      -43.97430000     -32.12350000     -67.95290000
C      -47.54270000     -33.89810000     -71.80830000
H      -48.10430000     -33.40010000     -72.64310000
H      -47.53920000     -33.18330000     -70.99090000
C      -43.57690000     -32.18040000     -69.80210000
H      -43.44590000     -33.24880000     -70.13470000
H      -42.67590000     -31.66670000     -69.97100000
C      -44.72040000     -31.44850000     -70.47280000
H      -45.61280000     -32.01010000     -70.44310000
H      -44.86780000     -30.48820000     -69.97850000
C      -46.00680000     -34.24310000     -72.16900000
H      -45.92240000     -35.31520000     -72.46510000
H      -45.53620000     -34.20260000     -71.21580000
C      -45.38420000     -33.44130000     -73.25940000
C      -45.40750000     -33.81160000     -74.52800000
C      -44.80600000     -32.10690000     -73.07700000
H      -45.70510000     -34.72150000     -74.86580000
C      -44.48980000     -31.52990000     -74.31760000
C      -44.55110000     -31.11250000     -72.00260000
C      -43.76460000     -30.05680000     -72.47030000
S      -44.79360000     -32.59710000     -75.66810000
S      -43.63700000     -29.97630000     -74.21090000
H      -43.49380000     -29.25390000     -71.81320000
