40
Properties=species:S:1:pos:R:3 #=T CELL(abcABC):=T 1.889726e+02=T 90.00000=T Traj:=T positionsangstrom=T Step:=T 0=T Bead:=T pbc="F F F"
C      -44.37400000     -36.06940000     -68.86510000
C      -45.08400000     -35.04190000     -68.25750000
C      -46.43680000     -34.92440000     -68.68050000
C      -47.08930000     -35.87200000     -69.51170000
C      -46.37660000     -36.97270000     -69.92810000
C      -44.95930000     -37.05360000     -69.69230000
H      -43.33700000     -36.17800000     -68.66450000
H      -47.04000000     -34.13570000     -68.27420000
H      -46.78430000     -37.84080000     -70.50110000
H      -44.41320000     -37.88440000     -69.98540000
C      -48.45500000     -35.42520000     -69.88990000
H      -48.72050000     -34.50200000     -69.35210000
H      -49.12180000     -36.27880000     -69.66330000
C      -44.41740000     -33.99950000     -67.31760000
H      -44.98550000     -34.14660000     -66.35870000
H      -43.37510000     -34.32280000     -67.12620000
S      -48.65280000     -35.11440000     -71.65260000
S      -44.56320000     -32.30240000     -67.82050000
C      -47.51080000     -33.67410000     -71.79050000
H      -47.86750000     -32.96080000     -72.47600000
H      -47.34270000     -33.22870000     -70.83830000
C      -43.85170000     -32.30730000     -69.47840000
H      -43.90280000     -33.34560000     -69.93100000
H      -42.89560000     -31.84390000     -69.56970000
C      -44.81040000     -31.48060000     -70.38580000
H      -45.85460000     -31.84680000     -70.40580000
H      -44.90490000     -30.37200000     -70.17320000
C      -46.10190000     -34.17700000     -72.27780000
H      -46.26260000     -35.04110000     -72.97680000
H      -45.44050000     -34.51700000     -71.51370000
C      -45.32820000     -33.31670000     -73.25310000
C      -45.33990000     -33.56020000     -74.59520000
C      -44.51070000     -32.15480000     -73.00030000
H      -45.90720000     -34.42260000     -75.05580000
C      -43.94280000     -31.60310000     -74.15400000
C      -44.36070000     -31.31730000     -71.84920000
C      -43.58720000     -30.20760000     -72.16140000
S      -44.38370000     -32.51800000     -75.64010000
S      -43.06700000     -30.12620000     -73.79230000
H      -43.23810000     -29.50480000     -71.32250000
