40
Properties=species:S:1:pos:R:3 #=T CELL(abcABC):=T 1.889726e+02=T 90.00000=T Traj:=T positionsangstrom=T Step:=T 0=T Bead:=T pbc="F F F"
C      -44.25510000     -36.31610000     -68.59490000
C      -44.83810000     -35.10740000     -68.19010000
C      -46.18150000     -34.92540000     -68.59650000
C      -46.86530000     -35.80830000     -69.40510000
C      -46.23150000     -36.96070000     -69.84070000
C      -44.92760000     -37.22730000     -69.37370000
H      -43.28920000     -36.49660000     -68.30180000
H      -46.62670000     -33.90900000     -68.31440000
H      -46.70250000     -37.57910000     -70.55180000
H      -44.42440000     -38.14690000     -69.67550000
C      -48.34990000     -35.69560000     -69.72480000
H      -49.00280000     -35.27400000     -68.93890000
H      -48.74340000     -36.69840000     -69.84400000
C      -44.05110000     -34.06530000     -67.42570000
H      -44.01910000     -34.15110000     -66.36070000
H      -43.00980000     -34.11670000     -67.78450000
S      -48.82260000     -35.06570000     -71.49250000
S      -44.63130000     -32.29700000     -67.90120000
C      -47.66200000     -33.72060000     -72.11630000
H      -48.09050000     -33.39340000     -73.10050000
H      -47.89020000     -32.92760000     -71.36250000
C      -44.01510000     -32.21100000     -69.63880000
H      -43.79930000     -33.20600000     -70.06410000
H      -42.98400000     -31.82850000     -69.67900000
C      -45.04070000     -31.38350000     -70.48250000
H      -45.98760000     -31.86470000     -70.51020000
H      -45.11250000     -30.47870000     -69.92850000
C      -46.16570000     -34.06570000     -72.22780000
H      -46.17400000     -35.14140000     -72.53000000
H      -45.70530000     -34.01180000     -71.23890000
C      -45.43540000     -33.18210000     -73.26820000
C      -45.41190000     -33.54480000     -74.57510000
C      -44.76760000     -31.95030000     -73.04210000
H      -45.80910000     -34.42690000     -75.08530000
C      -44.09120000     -31.52720000     -74.24100000
C      -44.33310000     -31.18960000     -71.82380000
C      -43.43690000     -30.18230000     -72.19090000
S      -44.38930000     -32.53250000     -75.63980000
S      -43.03490000     -30.18050000     -73.97640000
H      -42.98290000     -29.37800000     -71.53260000
