40
Properties=species:S:1:pos:R:3 #=T CELL(abcABC):=T 1.889726e+02=T 90.00000=T Traj:=T positionsangstrom=T Step:=T 0=T Bead:=T pbc="F F F"
C      -44.48570000     -36.05750000     -69.05960000
C      -45.22160000     -35.10450000     -68.28330000
C      -46.58310000     -34.98900000     -68.59180000
C      -47.21310000     -35.70310000     -69.58680000
C      -46.47430000     -36.79270000     -70.20600000
C      -45.15750000     -36.95990000     -69.85850000
H      -43.42010000     -36.32680000     -68.75430000
H      -47.14630000     -34.30500000     -67.95180000
H      -46.99800000     -37.49540000     -70.82880000
H      -44.60760000     -37.83860000     -70.23040000
C      -48.63490000     -35.28110000     -70.02880000
H      -48.83790000     -34.29870000     -69.54350000
H      -49.38930000     -36.02600000     -69.73620000
C      -44.71470000     -34.24370000     -67.17260000
H      -45.41070000     -34.14020000     -66.36810000
H      -43.71400000     -34.56130000     -66.83310000
S      -48.68620000     -34.93900000     -71.84640000
S      -44.43330000     -32.42580000     -67.73970000
C      -47.37520000     -33.68440000     -72.03080000
H      -47.56890000     -33.18830000     -72.99280000
H      -47.44020000     -32.97850000     -71.24660000
C      -43.91760000     -32.46110000     -69.52760000
H      -44.09460000     -33.49280000     -69.86210000
H      -42.76660000     -32.39770000     -69.42160000
C      -44.73830000     -31.46100000     -70.31340000
H      -45.78780000     -31.77050000     -70.29470000
H      -44.80270000     -30.53430000     -69.83120000
C      -45.96500000     -34.25440000     -72.11810000
H      -45.90230000     -35.34420000     -72.35790000
H      -45.41160000     -34.07990000     -71.15330000
C      -45.17610000     -33.45950000     -73.13910000
C      -45.02630000     -33.68690000     -74.48930000
C      -44.51530000     -32.08880000     -72.89450000
H      -45.58470000     -34.57310000     -74.87600000
C      -43.93600000     -31.59260000     -74.03940000
C      -44.32620000     -31.30870000     -71.73650000
C      -43.60380000     -30.16800000     -72.11620000
S      -44.17010000     -32.58280000     -75.49160000
S      -43.15460000     -30.05100000     -73.80490000
H      -43.29880000     -29.34460000     -71.39970000
