40
Properties=species:S:1:pos:R:3 #=T CELL(abcABC):=T 1.889726e+02=T 90.00000=T Traj:=T positionsangstrom=T Step:=T 0=T Bead:=T pbc="F F F"
C      -44.57050000     -36.02620000     -68.85300000
C      -45.24330000     -35.04200000     -68.24780000
C      -46.62380000     -34.88960000     -68.56910000
C      -47.23830000     -35.66560000     -69.55570000
C      -46.49040000     -36.71540000     -70.13900000
C      -45.18480000     -36.84100000     -69.83890000
H      -43.44420000     -36.14550000     -68.69290000
H      -47.13280000     -34.10950000     -68.16230000
H      -46.93620000     -37.33330000     -70.94240000
H      -44.52680000     -37.47750000     -70.43450000
C      -48.63170000     -35.64760000     -69.95810000
H      -49.25940000     -34.99230000     -69.36770000
H      -49.12730000     -36.62310000     -69.83440000
C      -44.40650000     -34.19130000     -67.28320000
H      -44.88530000     -34.28960000     -66.27580000
H      -43.40260000     -34.50880000     -67.21520000
S      -48.70990000     -35.02940000     -71.68510000
S      -44.47890000     -32.42240000     -67.72760000
C      -47.33900000     -33.79710000     -71.96410000
H      -47.76320000     -33.25350000     -72.86810000
H      -47.48340000     -33.01990000     -71.14440000
C      -43.85170000     -32.40560000     -69.52810000
H      -43.65790000     -33.45650000     -69.84310000
H      -42.89240000     -31.88240000     -69.47610000
C      -44.80660000     -31.57430000     -70.41310000
H      -45.78120000     -32.14620000     -70.39310000
H      -44.91650000     -30.67810000     -69.81990000
C      -45.90350000     -34.32560000     -72.22250000
H      -45.98360000     -35.33640000     -72.63750000
H      -45.46250000     -34.49070000     -71.26900000
C      -45.18360000     -33.37940000     -73.18150000
C      -45.18680000     -33.65690000     -74.50840000
C      -44.46830000     -32.07850000     -72.94680000
H      -45.57350000     -34.64920000     -74.94900000
C      -43.98810000     -31.54040000     -74.08840000
C      -44.21190000     -31.30650000     -71.81060000
C      -43.42980000     -30.18920000     -72.11530000
S      -44.26760000     -32.46650000     -75.56170000
S      -43.12740000     -30.05870000     -73.86240000
H      -43.16000000     -29.28560000     -71.43500000
