40
Properties=species:S:1:pos:R:3 #=T CELL(abcABC):=T 1.889726e+02=T 90.00000=T Traj:=T positionsangstrom=T Step:=T 0=T Bead:=T pbc="F F F"
C      -42.16380000     -29.82420000     -70.11070000
C      -42.54820000     -31.14710000     -70.48660000
C      -43.55410000     -31.68920000     -69.66180000
C      -44.09610000     -30.99480000     -68.59240000
C      -43.54520000     -29.76990000     -68.16960000
C      -42.56370000     -29.19260000     -68.99430000
H      -41.44250000     -29.28600000     -70.77680000
H      -43.98400000     -32.56260000     -70.05310000
H      -43.89880000     -29.22520000     -67.28300000
H      -42.11710000     -28.23800000     -68.84410000
C      -45.34900000     -31.47100000     -67.74260000
H      -46.26070000     -30.99580000     -68.24290000
H      -45.19060000     -31.10320000     -66.74130000
C      -42.22510000     -31.62100000     -71.89270000
H      -41.18860000     -31.43850000     -72.31380000
H      -42.18750000     -32.76410000     -71.99850000
S      -45.77860000     -33.21250000     -67.69990000
S      -43.50630000     -30.76300000     -73.04640000
C      -46.44460000     -33.66470000     -69.36300000
H      -47.48870000     -34.01170000     -69.25850000
H      -46.39900000     -32.83620000     -70.08160000
C      -45.01550000     -31.89430000     -73.00090000
H      -45.72560000     -31.57230000     -73.79930000
H      -45.49440000     -31.62050000     -72.07550000
C      -44.70150000     -33.42050000     -73.09640000
H      -43.82840000     -33.59890000     -73.66410000
H      -44.40750000     -33.73330000     -72.10490000
C      -45.69840000     -34.88300000     -69.99900000
H      -45.64310000     -35.63510000     -69.25060000
H      -44.67250000     -34.70080000     -70.21190000
C      -46.44360000     -35.59440000     -71.14060000
C      -47.25790000     -36.67020000     -70.84470000
C      -46.42270000     -35.33530000     -72.55590000
H      -47.26310000     -37.17490000     -69.86640000
C      -47.19460000     -36.26670000     -73.25300000
C      -45.83390000     -34.39320000     -73.41150000
C      -46.28300000     -34.49500000     -74.68870000
S      -48.04880000     -37.41070000     -72.23530000
S      -47.35180000     -35.85580000     -74.95770000
H      -45.93170000     -33.97620000     -75.52350000
