40
Properties=species:S:1:pos:R:3 #=T CELL(abcABC):=T 1.889726e+02=T 90.00000=T Traj:=T positionsangstrom=T Step:=T 0=T Bead:=T pbc="F F F"
C      -47.92500000     -35.68830000     -69.95440000
C      -48.42380000     -34.84930000     -71.00680000
C      -48.62930000     -33.50690000     -70.71290000
C      -48.28500000     -32.88480000     -69.52980000
C      -47.90730000     -33.75480000     -68.45090000
C      -47.69930000     -35.11880000     -68.69660000
H      -47.41300000     -36.59810000     -70.24230000
H      -48.86500000     -32.87720000     -71.57930000
H      -47.86810000     -33.29150000     -67.50340000
H      -47.37110000     -35.87540000     -67.96450000
C      -48.38190000     -31.44320000     -69.30560000
H      -48.20520000     -31.24170000     -68.20370000
H      -49.46290000     -31.13950000     -69.61440000
C      -48.59020000     -35.47030000     -72.29850000
H      -48.24240000     -36.50540000     -72.27370000
H      -49.64630000     -35.54170000     -72.57280000
S      -47.23540000     -30.45800000     -70.42230000
S      -47.67090000     -34.63410000     -73.65430000
C      -45.82090000     -31.67050000     -70.44870000
H      -45.24180000     -31.74100000     -69.50640000
H      -46.11070000     -32.74210000     -70.83590000
C      -45.90160000     -34.85110000     -73.07370000
H      -45.60810000     -35.85580000     -73.30470000
H      -45.84050000     -34.66450000     -71.95240000
C      -44.94310000     -33.83610000     -73.67190000
H      -44.77320000     -33.94960000     -74.71860000
H      -45.36980000     -32.77250000     -73.48610000
C      -44.77660000     -31.09490000     -71.45080000
H      -44.74550000     -30.03280000     -71.42810000
H      -45.09630000     -31.09150000     -72.53920000
C      -43.46220000     -31.86770000     -71.25910000
C      -42.53620000     -31.55030000     -70.25610000
C      -43.03700000     -33.04470000     -71.96910000
H      -42.55820000     -30.67300000     -69.64090000
C      -41.74890000     -33.47100000     -71.54930000
C      -43.59840000     -33.97330000     -72.92650000
C      -42.81050000     -35.02720000     -73.18820000
S      -41.08540000     -32.54610000     -70.23430000
S      -41.25770000     -35.00800000     -72.30960000
H      -43.07430000     -35.67530000     -73.98220000
