40
Properties=species:S:1:pos:R:3 #=T CELL(abcABC):=T 1.889726e+02=T 90.00000=T Traj:=T positionsangstrom=T Step:=T 0=T Bead:=T pbc="F F F"
C      -42.12960000     -29.92490000     -70.03080000
C      -42.65810000     -31.15740000     -70.40920000
C      -43.73300000     -31.59610000     -69.63060000
C      -44.18180000     -30.91670000     -68.46900000
C      -43.56500000     -29.70910000     -68.07070000
C      -42.59290000     -29.20840000     -68.89590000
H      -41.46300000     -29.41420000     -70.68970000
H      -44.16780000     -32.52250000     -69.92590000
H      -43.82300000     -29.13310000     -67.18830000
H      -42.02440000     -28.25190000     -68.73920000
C      -45.36660000     -31.46270000     -67.72450000
H      -46.32840000     -31.06340000     -67.91270000
H      -45.24020000     -31.24880000     -66.64280000
C      -42.33320000     -31.80090000     -71.74540000
H      -41.30510000     -31.63210000     -72.04870000
H      -42.59050000     -32.79470000     -71.75950000
S      -45.63230000     -33.32130000     -67.75760000
S      -43.26730000     -30.95680000     -73.16960000
C      -46.49330000     -33.68110000     -69.43470000
H      -47.54940000     -33.87610000     -69.25710000
H      -46.42420000     -32.85920000     -70.12390000
C      -44.95570000     -31.81380000     -73.20060000
H      -45.32910000     -31.56970000     -74.15480000
H      -45.59210000     -31.30690000     -72.36130000
C      -44.71790000     -33.37840000     -73.04540000
H      -43.78370000     -33.60250000     -73.69060000
H      -44.48190000     -33.57770000     -72.01620000
C      -45.76120000     -34.88300000     -69.96270000
H      -45.69860000     -35.59770000     -69.12900000
H      -44.66940000     -34.52630000     -70.18450000
C      -46.53900000     -35.50640000     -71.10610000
C      -47.33570000     -36.58490000     -70.84670000
C      -46.58510000     -35.21220000     -72.54240000
H      -47.50350000     -36.88490000     -69.84850000
C      -47.34680000     -36.15580000     -73.26870000
C      -45.92650000     -34.26610000     -73.43490000
C      -46.17090000     -34.50110000     -74.75770000
S      -48.08910000     -37.31290000     -72.23890000
S      -47.28220000     -35.88250000     -74.95910000
H      -45.80620000     -34.01160000     -75.61290000
