40
Properties=species:S:1:pos:R:3 #=T CELL(abcABC):=T 1.889726e+02=T 90.00000=T Traj:=T positionsangstrom=T Step:=T 0=T Bead:=T pbc="F F F"
C      -42.38760000     -29.53920000     -69.72790000
C      -42.71110000     -30.73500000     -70.36490000
C      -43.85970000     -31.38290000     -69.84550000
C      -44.62880000     -30.78910000     -68.84670000
C      -44.32470000     -29.60090000     -68.22370000
C      -43.20900000     -28.95020000     -68.77740000
H      -41.48260000     -29.01930000     -70.15100000
H      -44.29740000     -32.25520000     -70.25870000
H      -45.08860000     -29.15370000     -67.52650000
H      -42.72690000     -28.10740000     -68.34070000
C      -45.81140000     -31.57820000     -68.41530000
H      -46.51040000     -31.61000000     -69.24580000
H      -46.28510000     -31.05020000     -67.55620000
C      -41.97450000     -31.38880000     -71.49980000
H      -41.06130000     -30.75910000     -71.61400000
H      -41.68360000     -32.39620000     -71.17340000
S      -45.33980000     -33.29120000     -67.93670000
S      -42.92310000     -31.25400000     -73.09380000
C      -46.26460000     -34.18680000     -69.39420000
H      -47.28000000     -34.41450000     -69.04910000
H      -46.37190000     -33.42530000     -70.16140000
C      -44.49210000     -32.18350000     -72.90070000
H      -45.16250000     -31.89920000     -73.68140000
H      -45.00530000     -31.88840000     -71.91200000
C      -44.31540000     -33.71450000     -72.96910000
H      -43.56780000     -33.91390000     -73.72700000
H      -43.95660000     -34.12600000     -72.03390000
C      -45.46780000     -35.42230000     -69.86410000
H      -45.37450000     -36.22290000     -69.20600000
H      -44.46390000     -35.18020000     -70.10490000
C      -46.32460000     -35.91440000     -71.06460000
C      -47.34380000     -36.85040000     -70.90280000
C      -46.41470000     -35.36000000     -72.43340000
H      -47.40020000     -37.48050000     -70.05050000
C      -47.44430000     -35.95520000     -73.18090000
C      -45.57490000     -34.56340000     -73.33070000
C      -46.09700000     -34.43250000     -74.61200000
S      -48.42570000     -37.09200000     -72.30830000
S      -47.50090000     -35.44610000     -74.87180000
H      -45.63370000     -33.99460000     -75.42620000
