40
Properties=species:S:1:pos:R:3 #=T CELL(abcABC):=T 1.889726e+02=T 90.00000=T Traj:=T positionsangstrom=T Step:=T 0=T Bead:=T pbc="F F F"
C      -41.96550000     -29.74980000     -70.03870000
C      -42.61670000     -30.88090000     -70.63680000
C      -43.67640000     -31.43990000     -69.83860000
C      -44.19470000     -30.88800000     -68.66920000
C      -43.48500000     -29.77700000     -68.16290000
C      -42.37960000     -29.26580000     -68.79620000
H      -41.13260000     -29.18710000     -70.47220000
H      -44.08460000     -32.40880000     -70.14220000
H      -43.79590000     -29.30370000     -67.22660000
H      -41.83200000     -28.48100000     -68.39730000
C      -45.44430000     -31.33380000     -67.94650000
H      -46.30100000     -30.90040000     -68.45180000
H      -45.50980000     -30.98960000     -66.93370000
C      -42.31270000     -31.39190000     -72.03840000
H      -41.44210000     -30.90870000     -72.46010000
H      -42.19850000     -32.46350000     -71.94560000
S      -45.73530000     -33.25940000     -67.83370000
S      -43.78230000     -30.86440000     -73.15030000
C      -46.52160000     -33.73040000     -69.38970000
H      -47.59990000     -33.93800000     -69.28110000
H      -46.45270000     -32.86480000     -70.05660000
C      -45.01240000     -32.17780000     -72.73970000
H      -45.90640000     -32.03420000     -73.46860000
H      -45.43490000     -32.17020000     -71.74990000
C      -44.52530000     -33.62350000     -73.04670000
H      -43.94900000     -33.53490000     -74.01170000
H      -43.91480000     -34.08290000     -72.20840000
C      -45.66350000     -34.86550000     -70.03120000
H      -45.29380000     -35.55910000     -69.22580000
H      -44.79450000     -34.29450000     -70.39880000
C      -46.37590000     -35.66550000     -71.04330000
C      -47.07000000     -36.81670000     -70.77210000
C      -46.48490000     -35.29350000     -72.48320000
H      -47.08650000     -37.43280000     -69.86440000
C      -47.31690000     -36.18670000     -73.15360000
C      -45.67240000     -34.48920000     -73.38610000
C      -46.09010000     -34.62580000     -74.66850000
S      -47.98590000     -37.40440000     -72.18420000
S      -47.40710000     -35.75650000     -74.84340000
H      -45.58310000     -34.05510000     -75.44090000
