40
Properties=species:S:1:pos:R:3 #=T CELL(abcABC):=T 1.889726e+02=T 90.00000=T Traj:=T positionsangstrom=T Step:=T 0=T Bead:=T pbc="F F F"
C      -42.14260000     -29.83230000     -69.92420000
C      -42.83360000     -30.94310000     -70.45760000
C      -43.93140000     -31.44120000     -69.74140000
C      -44.35600000     -30.84970000     -68.53680000
C      -43.62480000     -29.75350000     -67.99390000
C      -42.61890000     -29.16910000     -68.71130000
H      -41.27540000     -29.46350000     -70.34240000
H      -44.28160000     -32.41530000     -70.14750000
H      -43.93330000     -29.25450000     -67.06790000
H      -42.10530000     -28.30970000     -68.22030000
C      -45.45330000     -31.48910000     -67.70950000
H      -46.42190000     -31.07420000     -67.97460000
H      -45.18640000     -31.22120000     -66.66820000
C      -42.31470000     -31.65420000     -71.74300000
H      -41.23520000     -31.29690000     -71.80540000
H      -42.36860000     -32.74980000     -71.57720000
S      -45.51590000     -33.35950000     -67.71520000
S      -43.12880000     -31.17450000     -73.33400000
C      -46.41310000     -33.65680000     -69.26960000
H      -47.45970000     -33.79610000     -68.94680000
H      -46.40350000     -32.69500000     -69.79630000
C      -44.76380000     -32.04470000     -73.29040000
H      -45.15900000     -31.98020000     -74.31910000
H      -45.49190000     -31.51790000     -72.70990000
C      -44.65880000     -33.48380000     -72.80720000
H      -43.81610000     -33.98160000     -73.25170000
H      -44.64890000     -33.56260000     -71.70420000
C      -45.86690000     -34.89820000     -70.01280000
H      -45.71620000     -35.58050000     -69.22750000
H      -44.84670000     -34.72090000     -70.40000000
C      -46.57840000     -35.60010000     -71.10350000
C      -47.37490000     -36.68910000     -70.90990000
C      -46.56440000     -35.19040000     -72.48670000
H      -47.51680000     -37.08540000     -69.92340000
C      -47.39080000     -35.98590000     -73.27840000
C      -45.83050000     -34.31010000     -73.33280000
C      -46.10010000     -34.48410000     -74.66000000
S      -48.15290000     -37.28490000     -72.35980000
S      -47.32590000     -35.73400000     -74.99790000
H      -45.53720000     -34.02140000     -75.47700000
