40
Properties=species:S:1:pos:R:3 #=T CELL(abcABC):=T 1.889726e+02=T 90.00000=T Traj:=T positionsangstrom=T Step:=T 0=T Bead:=T pbc="F F F"
C      -44.57710000     -36.43360000     -68.97990000
C      -45.19370000     -35.25580000     -68.43020000
C      -46.49370000     -34.92870000     -68.85610000
C      -47.27770000     -35.70300000     -69.69970000
C      -46.70980000     -36.90100000     -70.21520000
C      -45.42630000     -37.20150000     -69.80830000
H      -43.60610000     -36.74290000     -68.68690000
H      -46.85460000     -33.91760000     -68.60450000
H      -47.18020000     -37.45520000     -71.03330000
H      -44.87700000     -37.96610000     -70.34360000
C      -48.60710000     -35.22030000     -70.09910000
H      -48.77840000     -34.21000000     -69.60140000
H      -49.44750000     -35.84560000     -69.77730000
C      -44.45160000     -34.33410000     -67.43430000
H      -44.96310000     -34.57090000     -66.48210000
H      -43.46650000     -34.73950000     -67.36420000
S      -48.89380000     -34.86390000     -71.89740000
S      -44.49380000     -32.50810000     -67.75660000
C      -47.67030000     -33.52520000     -72.37180000
H      -47.71930000     -33.39600000     -73.45380000
H      -48.00060000     -32.58330000     -71.87570000
C      -44.07820000     -32.35660000     -69.63280000
H      -44.19420000     -33.33030000     -70.18120000
H      -43.11760000     -31.96590000     -69.69430000
C      -44.96990000     -31.31020000     -70.34830000
H      -46.03530000     -31.48720000     -70.28920000
H      -44.87210000     -30.34990000     -69.83120000
C      -46.21990000     -33.91000000     -72.03510000
H      -46.11460000     -34.97830000     -72.12580000
H      -45.90350000     -33.62580000     -71.07000000
C      -45.25040000     -33.24010000     -73.05710000
C      -44.96460000     -33.67570000     -74.34960000
C      -44.53610000     -32.03570000     -72.85690000
H      -45.27710000     -34.55790000     -74.86210000
C      -43.72840000     -31.60880000     -73.90740000
C      -44.43710000     -31.09410000     -71.77700000
C      -43.59430000     -30.07770000     -71.99500000
S      -43.75560000     -32.79450000     -75.24520000
S      -42.83230000     -30.06560000     -73.64240000
H      -43.31660000     -29.31500000     -71.36450000
