40
Properties=species:S:1:pos:R:3 #=T CELL(abcABC):=T 1.889726e+02=T 90.00000=T Traj:=T positionsangstrom=T Step:=T 0=T Bead:=T pbc="F F F"
C      -42.29460000     -29.57430000     -69.76650000
C      -42.80580000     -30.71430000     -70.49190000
C      -44.00170000     -31.26210000     -70.03300000
C      -44.57400000     -30.85240000     -68.79970000
C      -44.11530000     -29.65390000     -68.21740000
C      -42.87570000     -29.09480000     -68.58900000
H      -41.26050000     -29.11430000     -70.10860000
H      -44.20940000     -32.30400000     -70.29990000
H      -44.64980000     -29.41520000     -67.27850000
H      -42.56890000     -28.25000000     -68.00490000
C      -45.78800000     -31.59240000     -68.25390000
H      -46.70380000     -31.38900000     -68.81300000
H      -46.02330000     -31.19330000     -67.24570000
C      -42.05790000     -31.34420000     -71.60230000
H      -41.11100000     -30.85270000     -71.84270000
H      -41.94010000     -32.41620000     -71.36420000
S      -45.44040000     -33.40610000     -68.01210000
S      -42.87340000     -31.21930000     -73.29440000
C      -46.42960000     -34.19180000     -69.24520000
H      -47.41050000     -34.49220000     -68.80190000
H      -46.73470000     -33.43480000     -69.98070000
C      -44.50340000     -32.17890000     -73.30900000
H      -44.73860000     -32.27980000     -74.32400000
H      -45.29370000     -31.58750000     -72.82220000
C      -44.46440000     -33.56910000     -72.66170000
H      -43.50930000     -34.10670000     -72.96710000
H      -44.34670000     -33.51520000     -71.58010000
C      -45.65560000     -35.36690000     -69.93130000
H      -45.45920000     -36.07680000     -69.06260000
H      -44.65440000     -34.98030000     -70.27800000
C      -46.42700000     -35.92490000     -71.00810000
C      -47.46690000     -36.78880000     -70.80700000
C      -46.45030000     -35.36880000     -72.36750000
H      -47.73070000     -37.17120000     -69.77240000
C      -47.42340000     -35.97850000     -73.18080000
C      -45.61260000     -34.42670000     -73.13610000
C      -46.03890000     -34.33650000     -74.45090000
S      -48.38610000     -37.17630000     -72.28070000
S      -47.34250000     -35.42340000     -74.85640000
H      -45.64030000     -33.71670000     -75.24930000
