40
Properties=species:S:1:pos:R:3 #=T CELL(abcABC):=T 1.889726e+02=T 90.00000=T Traj:=T positionsangstrom=T Step:=T 0=T Bead:=T pbc="F F F"
C      -44.15610000     -29.71530000     -70.56340000
C      -43.31430000     -30.85800000     -70.31900000
C      -43.45130000     -31.63900000     -69.15130000
C      -44.49190000     -31.38780000     -68.18830000
C      -45.32810000     -30.31710000     -68.46770000
C      -45.08940000     -29.45080000     -69.57110000
H      -44.06330000     -28.98950000     -71.37850000
H      -42.79330000     -32.42190000     -68.93360000
H      -46.16270000     -30.04280000     -67.84010000
H      -45.58480000     -28.48830000     -69.70350000
C      -44.71050000     -32.28670000     -67.07330000
H      -45.59750000     -31.96510000     -66.54630000
H      -43.91010000     -32.28040000     -66.34230000
C      -42.19770000     -31.12220000     -71.31120000
H      -41.45710000     -30.32120000     -71.35850000
H      -41.66050000     -32.06120000     -71.12260000
S      -44.88720000     -34.06090000     -67.48950000
S      -42.83720000     -31.21530000     -73.10950000
C      -46.14360000     -34.12870000     -68.95510000
H      -46.85580000     -34.89450000     -68.61560000
H      -46.45390000     -33.14730000     -69.16360000
C      -44.33580000     -32.20420000     -72.79160000
H      -45.22880000     -31.75810000     -73.28460000
H      -44.58870000     -32.30950000     -71.73030000
C      -44.10000000     -33.61800000     -73.39020000
H      -43.57090000     -33.39410000     -74.23320000
H      -43.49030000     -34.20530000     -72.72420000
C      -45.38950000     -34.59270000     -70.28130000
H      -44.61590000     -35.45490000     -70.16560000
H      -44.89760000     -33.63720000     -70.63260000
C      -46.42500000     -35.02940000     -71.28140000
C      -47.47820000     -35.77640000     -70.91820000
C      -46.22370000     -35.00550000     -72.74560000
H      -47.83970000     -36.09640000     -69.94390000
C      -47.21840000     -35.73040000     -73.36550000
C      -45.33410000     -34.34770000     -73.74940000
C      -45.69340000     -34.70290000     -75.03780000
S      -48.37000000     -36.42970000     -72.22090000
S      -47.16400000     -35.64790000     -75.13820000
H      -45.18190000     -34.38220000     -75.90460000
