40
Properties=species:S:1:pos:R:3 #=T CELL(abcABC):=T 1.889726e+02=T 90.00000=T Traj:=T positionsangstrom=T Step:=T 0=T Bead:=T pbc="F F F"
C      -42.92780000     -36.20880000     -70.77050000
C      -44.05820000     -36.52500000     -71.51200000
C      -44.11870000     -36.03560000     -72.85020000
C      -43.13430000     -35.20660000     -73.39200000
C      -42.01550000     -34.88250000     -72.59470000
C      -41.88450000     -35.52250000     -71.31560000
H      -42.82960000     -36.49190000     -69.74230000
H      -45.02170000     -36.09540000     -73.43830000
H      -41.14400000     -34.40050000     -73.05680000
H      -40.97220000     -35.36090000     -70.73670000
C      -43.19480000     -34.52800000     -74.75580000
H      -43.19520000     -35.25310000     -75.54650000
H      -42.34340000     -33.83290000     -75.00120000
C      -45.07500000     -37.32460000     -70.84490000
H      -45.07840000     -38.38600000     -71.22280000
H      -44.86290000     -37.44950000     -69.72740000
S      -44.63350000     -33.40060000     -75.12250000
S      -46.80230000     -36.71010000     -70.98500000
C      -44.46930000     -32.18180000     -73.67850000
H      -43.79490000     -32.66300000     -72.93790000
H      -44.04040000     -31.24910000     -74.07770000
C      -46.58210000     -35.05500000     -70.10060000
H      -45.62420000     -34.67120000     -70.53380000
H      -46.46240000     -35.10830000     -68.96690000
C      -47.63350000     -34.00790000     -70.44690000
H      -47.70930000     -33.82360000     -71.50400000
H      -48.66610000     -34.35310000     -70.10550000
C      -45.75990000     -32.13670000     -72.83450000
H      -46.05600000     -33.11960000     -72.60900000
H      -46.55070000     -31.72990000     -73.46040000
C      -45.67520000     -31.29530000     -71.51040000
C      -45.11950000     -30.02570000     -71.47860000
C      -46.30790000     -31.66020000     -70.28080000
H      -44.55680000     -29.52560000     -72.29070000
C      -46.12250000     -30.64200000     -69.30010000
C      -47.27170000     -32.65930000     -69.77110000
C      -47.81820000     -32.39010000     -68.55840000
S      -45.20750000     -29.30120000     -69.89160000
S      -47.22270000     -30.84290000     -67.91340000
H      -48.50220000     -33.05690000     -68.09960000
