40
Properties=species:S:1:pos:R:3 #=T CELL(abcABC):=T 1.889726e+02=T 90.00000=T Traj:=T positionsangstrom=T Step:=T 0=T Bead:=T pbc="F F F"
C      -43.37270000     -29.47060000     -70.26890000
C      -42.96030000     -30.79730000     -70.17620000
C      -43.45570000     -31.60210000     -69.11240000
C      -44.49320000     -31.07970000     -68.29740000
C      -44.92430000     -29.73760000     -68.41710000
C      -44.38740000     -28.96700000     -69.42070000
H      -42.98060000     -28.83220000     -71.08640000
H      -43.08900000     -32.64980000     -68.95580000
H      -45.70050000     -29.35120000     -67.72850000
H      -44.78560000     -27.98430000     -69.56180000
C      -45.12200000     -31.93920000     -67.14850000
H      -46.04490000     -31.56740000     -66.83770000
H      -44.48830000     -32.07260000     -66.29720000
C      -42.13520000     -31.47070000     -71.19910000
H      -41.09030000     -31.07060000     -71.30630000
H      -42.11070000     -32.54690000     -70.99700000
S      -45.29450000     -33.70900000     -67.78240000
S      -42.71970000     -31.33480000     -72.92250000
C      -46.12790000     -33.85930000     -69.43990000
H      -47.18860000     -34.05080000     -69.38910000
H      -46.04000000     -32.83470000     -69.95850000
C      -44.35160000     -32.08600000     -72.94300000
H      -44.93950000     -31.45360000     -73.61040000
H      -44.69910000     -31.74070000     -71.95960000
C      -44.30050000     -33.58080000     -73.41270000
H      -43.69030000     -33.44350000     -74.42210000
H      -43.57180000     -34.09650000     -72.79470000
C      -45.42540000     -34.90330000     -70.25950000
H      -44.86200000     -35.73670000     -69.74290000
H      -44.56620000     -34.51010000     -70.88420000
C      -46.35510000     -35.43410000     -71.30060000
C      -47.30010000     -36.31220000     -70.89730000
C      -46.29910000     -35.22570000     -72.70700000
H      -47.38330000     -36.62390000     -69.86950000
C      -47.34380000     -35.92860000     -73.29710000
C      -45.53570000     -34.38900000     -73.70840000
C      -46.13860000     -34.47700000     -74.92340000
S      -48.23380000     -36.96250000     -72.25950000
S      -47.43440000     -35.63370000     -75.02930000
H      -45.77620000     -33.95580000     -75.85730000
