40
Properties=species:S:1:pos:R:3 #=T CELL(abcABC):=T 1.889726e+02=T 90.00000=T Traj:=T positionsangstrom=T Step:=T 0=T Bead:=T pbc="F F F"
C      -43.21880000     -29.41170000     -70.26940000
C      -42.99670000     -30.84830000     -70.21910000
C      -43.66330000     -31.60990000     -69.25560000
C      -44.54920000     -31.00140000     -68.35620000
C      -44.62650000     -29.59100000     -68.33980000
C      -43.91970000     -28.80550000     -69.23800000
H      -42.56370000     -28.84170000     -70.99020000
H      -43.47010000     -32.70280000     -69.24850000
H      -45.23850000     -29.06340000     -67.60900000
H      -43.87230000     -27.76700000     -69.00900000
C      -45.33470000     -31.86900000     -67.40410000
H      -46.35300000     -31.43120000     -67.25150000
H      -44.79990000     -31.67470000     -66.39310000
C      -42.06950000     -31.41890000     -71.22110000
H      -41.22250000     -30.79410000     -71.23290000
H      -41.72140000     -32.36560000     -70.88720000
S      -45.60050000     -33.65790000     -67.66290000
S      -42.69360000     -31.42670000     -73.01270000
C      -45.94700000     -33.71510000     -69.53540000
H      -47.00760000     -33.92820000     -69.52370000
H      -45.69860000     -32.78420000     -70.01670000
C      -44.42400000     -32.27890000     -72.92140000
H      -45.17170000     -31.80290000     -73.53690000
H      -44.76460000     -32.27000000     -71.84180000
C      -44.18350000     -33.75260000     -73.30990000
H      -43.54260000     -33.86440000     -74.13970000
H      -43.82580000     -34.23810000     -72.50870000
C      -45.34180000     -34.98060000     -70.22100000
H      -45.26960000     -35.67800000     -69.39760000
H      -44.32520000     -34.68170000     -70.52990000
C      -46.20200000     -35.57990000     -71.34300000
C      -47.08630000     -36.59850000     -70.98430000
C      -46.31720000     -35.26370000     -72.74100000
H      -47.25070000     -37.06450000     -70.06020000
C      -47.44610000     -35.87200000     -73.30270000
C      -45.55770000     -34.41740000     -73.66050000
C      -46.16540000     -34.40960000     -74.88710000
S      -48.19140000     -37.01950000     -72.24740000
S      -47.59690000     -35.46570000     -75.00570000
H      -45.85070000     -33.85410000     -75.81240000
