40
Properties=species:S:1:pos:R:3 #=T CELL(abcABC):=T 1.889726e+02=T 90.00000=T Traj:=T positionsangstrom=T Step:=T 0=T Bead:=T pbc="F F F"
C      -42.74270000     -36.18710000     -70.71010000
C      -43.95340000     -36.44710000     -71.39890000
C      -44.24530000     -35.79400000     -72.59100000
C      -43.31770000     -34.89900000     -73.18220000
C      -42.13300000     -34.63250000     -72.42200000
C      -41.82390000     -35.30550000     -71.22920000
H      -42.39130000     -36.81490000     -69.88840000
H      -45.03220000     -36.01080000     -73.27660000
H      -41.48550000     -33.82220000     -72.86930000
H      -40.90480000     -35.07170000     -70.74580000
C      -43.42810000     -34.62580000     -74.67320000
H      -43.61180000     -35.57610000     -75.20320000
H      -42.45350000     -34.29240000     -75.04300000
C      -45.07440000     -37.50010000     -71.02600000
H      -45.05890000     -38.23400000     -71.82820000
H      -44.95460000     -37.99480000     -70.07800000
S      -44.86800000     -33.48420000     -75.01740000
S      -46.81650000     -36.64750000     -71.02650000
C      -44.61610000     -32.14190000     -73.82350000
H      -43.58290000     -32.13660000     -73.47860000
H      -44.75750000     -31.17200000     -74.26520000
C      -46.40890000     -35.13240000     -70.12760000
H      -45.46960000     -34.78310000     -70.38400000
H      -46.42780000     -35.34610000     -69.09150000
C      -47.44830000     -34.08760000     -70.48560000
H      -47.55660000     -33.91860000     -71.55190000
H      -48.40910000     -34.46340000     -70.15310000
C      -45.64990000     -32.35400000     -72.71090000
H      -45.74660000     -33.39500000     -72.45720000
H      -46.76250000     -32.09690000     -72.94660000
C      -45.57410000     -31.35440000     -71.55870000
C      -44.82620000     -30.18680000     -71.48080000
C      -46.35320000     -31.67010000     -70.35720000
H      -44.26460000     -29.84710000     -72.29890000
C      -46.25050000     -30.59470000     -69.45720000
C      -47.18860000     -32.72900000     -69.81170000
C      -47.68720000     -32.41850000     -68.57120000
S      -45.18530000     -29.26770000     -70.02490000
S      -47.16970000     -30.89500000     -67.96930000
H      -48.34850000     -33.04270000     -68.01580000
