40
Properties=species:S:1:pos:R:3 #=T CELL(abcABC):=T 1.889726e+02=T 90.00000=T Traj:=T positionsangstrom=T Step:=T 0=T Bead:=T pbc="F F F"
C      -42.97950000     -36.05160000     -70.73030000
C      -43.95780000     -36.50150000     -71.56930000
C      -44.12470000     -36.04310000     -72.89450000
C      -43.29180000     -35.02390000     -73.39750000
C      -42.21360000     -34.61070000     -72.50890000
C      -42.09230000     -35.13150000     -71.24650000
H      -42.84640000     -36.31380000     -69.67730000
H      -44.92930000     -36.39630000     -73.60590000
H      -41.45420000     -34.00670000     -72.92760000
H      -41.19350000     -34.80370000     -70.73020000
C      -43.31250000     -34.33140000     -74.72720000
H      -43.05310000     -34.94920000     -75.61490000
H      -42.59150000     -33.52210000     -74.61890000
C      -44.98580000     -37.40020000     -70.90740000
H      -44.96730000     -38.41620000     -71.34900000
H      -44.65000000     -37.48320000     -69.85970000
S      -44.90080000     -33.55470000     -75.08010000
S      -46.68700000     -36.66890000     -70.91900000
C      -44.93740000     -32.10190000     -73.88490000
H      -43.90290000     -31.84620000     -73.74400000
H      -45.46730000     -31.22730000     -74.36540000
C      -46.44990000     -35.00230000     -70.14920000
H      -45.42660000     -34.58970000     -70.43900000
H      -46.25740000     -35.17100000     -69.03210000
C      -47.57030000     -34.04900000     -70.40470000
H      -47.60860000     -33.95840000     -71.55590000
H      -48.51120000     -34.43120000     -70.11440000
C      -45.45250000     -32.63420000     -72.45880000
H      -44.83750000     -33.37770000     -71.93780000
H      -46.43830000     -33.10520000     -72.77310000
C      -45.57050000     -31.52750000     -71.45640000
C      -44.92770000     -30.30760000     -71.56280000
C      -46.33210000     -31.69040000     -70.23810000
H      -44.30390000     -29.95970000     -72.37410000
C      -46.16290000     -30.64310000     -69.40560000
C      -47.18950000     -32.70640000     -69.70580000
C      -47.76470000     -32.35470000     -68.47940000
S      -45.15670000     -29.33620000     -70.07880000
S      -47.08610000     -30.76220000     -67.94980000
H      -48.35070000     -32.98080000     -67.86790000
