40
Properties=species:S:1:pos:R:3 #=T CELL(abcABC):=T 1.889726e+02=T 90.00000=T Traj:=T positionsangstrom=T Step:=T 0=T Bead:=T pbc="F F F"
C      -44.36860000     -29.25920000     -69.78520000
C      -43.78160000     -30.42060000     -70.21850000
C      -44.14390000     -31.59360000     -69.57280000
C      -44.96770000     -31.62080000     -68.44210000
C      -45.43230000     -30.34320000     -68.00130000
C      -45.14980000     -29.15670000     -68.64850000
H      -44.00080000     -28.32240000     -70.28320000
H      -43.58030000     -32.49390000     -69.79820000
H      -46.10330000     -30.32510000     -67.07350000
H      -45.49230000     -28.31660000     -68.06410000
C      -45.21650000     -32.83610000     -67.56760000
H      -46.31140000     -32.96900000     -67.75060000
H      -44.99990000     -32.64410000     -66.52220000
C      -42.74420000     -30.37070000     -71.39300000
H      -42.14620000     -29.48240000     -71.35000000
H      -42.05570000     -31.17810000     -71.39620000
S      -44.27400000     -34.35270000     -67.95110000
S      -43.64010000     -30.44140000     -73.07820000
C      -44.94080000     -35.04160000     -69.51430000
H      -44.07580000     -35.09820000     -70.28200000
H      -45.10920000     -36.02840000     -69.29140000
C      -44.98690000     -31.61410000     -72.74580000
H      -45.61280000     -31.50270000     -73.64220000
H      -45.56430000     -31.40380000     -71.88260000
C      -44.37140000     -33.10280000     -72.64580000
H      -43.55430000     -33.17880000     -73.29530000
H      -44.07550000     -33.29750000     -71.60680000
C      -46.29280000     -34.48760000     -70.02860000
H      -46.19920000     -33.37070000     -70.13870000
H      -47.05510000     -34.72800000     -69.24930000
C      -46.73350000     -35.28640000     -71.24340000
C      -47.60010000     -36.40490000     -71.15780000
C      -46.22700000     -35.01110000     -72.53320000
H      -48.00810000     -36.89580000     -70.26670000
C      -46.79990000     -35.92040000     -73.45570000
C      -45.29490000     -34.13130000     -73.19970000
C      -45.13720000     -34.46420000     -74.58560000
S      -47.84210000     -37.15060000     -72.75200000
S      -46.19870000     -35.74610000     -75.16000000
H      -44.43820000     -33.99440000     -75.31920000
