40
Properties=species:S:1:pos:R:3 #=T CELL(abcABC):=T 1.889726e+02=T 90.00000=T Traj:=T positionsangstrom=T Step:=T 0=T Bead:=T pbc="F F F"
C      -44.40150000     -29.18970000     -69.84810000
C      -43.64890000     -30.32680000     -70.14790000
C      -43.93160000     -31.43260000     -69.35520000
C      -44.99600000     -31.54380000     -68.40080000
C      -45.58880000     -30.26440000     -68.04990000
C      -45.25140000     -29.15890000     -68.78380000
H      -44.29020000     -28.32790000     -70.53180000
H      -43.47580000     -32.38040000     -69.54010000
H      -46.34510000     -30.26300000     -67.26470000
H      -45.64350000     -28.22830000     -68.41690000
C      -45.27960000     -32.80800000     -67.73240000
H      -46.33720000     -33.06260000     -67.88590000
H      -45.20450000     -32.71840000     -66.62030000
C      -42.76280000     -30.43870000     -71.34620000
H      -42.14850000     -29.54930000     -71.32790000
H      -42.14560000     -31.39790000     -71.24130000
S      -44.16580000     -34.26670000     -68.09280000
S      -43.73120000     -30.48370000     -72.90790000
C      -44.94770000     -35.20230000     -69.45890000
H      -44.24870000     -35.13840000     -70.27040000
H      -45.00330000     -36.27890000     -69.20540000
C      -44.95120000     -31.80030000     -72.75700000
H      -45.58080000     -31.75130000     -73.65300000
H      -45.80410000     -31.55310000     -72.00040000
C      -44.30250000     -33.22060000     -72.48750000
H      -43.27160000     -33.22480000     -72.97010000
H      -44.17500000     -33.28530000     -71.38050000
C      -46.24450000     -34.55960000     -70.00490000
H      -45.97270000     -33.49580000     -70.25410000
H      -47.06000000     -34.60540000     -69.29290000
C      -46.68990000     -35.32520000     -71.24660000
C      -47.66070000     -36.30370000     -71.23270000
C      -46.13570000     -35.16950000     -72.56340000
H      -47.95130000     -36.80420000     -70.31030000
C      -46.72770000     -35.98610000     -73.49330000
C      -45.14120000     -34.25790000     -73.16150000
C      -45.06610000     -34.53110000     -74.54170000
S      -47.95860000     -36.98740000     -72.80350000
S      -46.24250000     -35.75990000     -75.17500000
H      -44.67580000     -33.89860000     -75.35540000
