40
Properties=species:S:1:pos:R:3 #=T CELL(abcABC):=T 1.889726e+02=T 90.00000=T Traj:=T positionsangstrom=T Step:=T 0=T Bead:=T pbc="F F F"
C      -47.32400000     -31.02080000     -71.09290000
C      -47.39580000     -31.97090000     -72.15560000
C      -46.32670000     -32.08370000     -73.02780000
C      -45.19320000     -31.30120000     -72.97160000
C      -45.06270000     -30.47080000     -71.83020000
C      -46.12570000     -30.27570000     -70.91240000
H      -48.07990000     -31.04090000     -70.34170000
H      -46.44220000     -32.79750000     -73.91700000
H      -44.10410000     -29.83150000     -71.74920000
H      -45.95290000     -29.48550000     -70.20360000
C      -44.16390000     -31.32100000     -74.13380000
H      -43.15340000     -30.98300000     -73.82580000
H      -44.49030000     -30.55900000     -74.93260000
C      -48.51610000     -32.94720000     -72.19940000
H      -49.53870000     -32.61400000     -72.04830000
H      -48.70680000     -33.44560000     -73.18860000
S      -43.88610000     -32.86030000     -75.06350000
S      -48.23400000     -34.15310000     -70.77800000
C      -43.18720000     -34.09130000     -73.87570000
H      -42.83090000     -34.83570000     -74.59750000
H      -42.32980000     -33.73590000     -73.46480000
C      -47.48610000     -35.65800000     -71.75820000
H      -47.00490000     -35.30830000     -72.69260000
H      -48.36030000     -36.33500000     -71.99620000
C      -46.52600000     -36.40720000     -70.88220000
H      -47.23450000     -36.92130000     -70.15320000
H      -45.92470000     -37.15510000     -71.51030000
C      -44.02780000     -34.73960000     -72.78370000
H      -43.74020000     -35.78890000     -72.66710000
H      -45.09540000     -34.76960000     -72.99980000
C      -43.80390000     -34.09070000     -71.44810000
C      -42.79810000     -33.24700000     -71.12380000
C      -44.56420000     -34.55050000     -70.25590000
H      -42.02180000     -32.94730000     -71.82070000
C      -44.09700000     -33.84290000     -69.12650000
C      -45.68230000     -35.49600000     -69.92160000
C      -46.00870000     -35.46300000     -68.60060000
S      -42.73740000     -32.85420000     -69.36600000
S      -45.14050000     -34.25060000     -67.69370000
H      -46.77390000     -36.04980000     -68.04690000
