40
Properties=species:S:1:pos:R:3 #=T CELL(abcABC):=T 1.889726e+02=T 90.00000=T Traj:=T positionsangstrom=T Step:=T 0=T Bead:=T pbc="F F F"
C      -46.79910000     -31.05500000     -70.51620000
C      -47.24550000     -31.72370000     -71.68920000
C      -46.39630000     -32.01440000     -72.78620000
C      -45.06760000     -31.55080000     -72.70570000
C      -44.61470000     -30.91260000     -71.54330000
C      -45.47230000     -30.64180000     -70.47600000
H      -47.39500000     -30.95370000     -69.58100000
H      -46.71080000     -32.55670000     -73.68360000
H      -43.62900000     -30.65510000     -71.40030000
H      -45.14510000     -29.92830000     -69.72160000
C      -44.08760000     -31.57060000     -73.84370000
H      -43.08050000     -31.61240000     -73.56020000
H      -44.25440000     -30.72140000     -74.48440000
C      -48.59700000     -32.27670000     -71.68380000
H      -49.31950000     -31.76770000     -71.04710000
H      -49.24620000     -32.14090000     -72.53050000
S      -44.28680000     -33.07750000     -75.00200000
S      -48.78020000     -34.11100000     -71.06620000
C      -43.08730000     -34.24070000     -74.12180000
H      -42.88190000     -35.02650000     -74.79680000
H      -42.20040000     -33.71160000     -73.96520000
C      -47.55270000     -35.02880000     -72.15170000
H      -47.07850000     -34.31200000     -72.71910000
H      -48.12260000     -35.58380000     -72.91710000
C      -46.70880000     -35.95930000     -71.24040000
H      -47.29120000     -36.62220000     -70.65700000
H      -46.09310000     -36.59200000     -71.94800000
C      -43.79250000     -34.94440000     -72.93120000
H      -43.21880000     -35.87740000     -72.87670000
H      -44.80490000     -35.26270000     -73.14200000
C      -43.68170000     -34.32370000     -71.53860000
C      -42.57080000     -33.58180000     -71.16900000
C      -44.52800000     -34.53710000     -70.37020000
H      -41.61130000     -33.29160000     -71.64410000
C      -44.07950000     -33.95250000     -69.21280000
C      -45.84730000     -35.15420000     -70.19400000
C      -46.23920000     -35.01760000     -68.87200000
S      -42.61860000     -32.97620000     -69.47940000
S      -45.11120000     -34.22120000     -67.78100000
H      -47.18430000     -35.32840000     -68.44700000
