40
Properties=species:S:1:pos:R:3 #=T CELL(abcABC):=T 1.889726e+02=T 90.00000=T Traj:=T positionsangstrom=T Step:=T 0=T Bead:=T pbc="F F F"
C      -45.65460000     -32.89450000     -67.42750000
C      -45.01090000     -34.05810000     -67.87660000
C      -43.69120000     -33.95970000     -68.32100000
C      -43.10460000     -32.72310000     -68.62760000
C      -43.91520000     -31.57830000     -68.39820000
C      -45.14640000     -31.66290000     -67.76550000
H      -46.70710000     -32.84900000     -67.02230000
H      -43.14580000     -34.90010000     -68.42980000
H      -43.52760000     -30.56920000     -68.72830000
H      -45.62630000     -30.74970000     -67.53910000
C      -41.73210000     -32.60010000     -69.25700000
H      -40.90650000     -33.14170000     -68.76420000
H      -41.37100000     -31.56220000     -69.22410000
C      -45.72400000     -35.38010000     -67.60080000
H      -45.04560000     -36.21570000     -67.29870000
H      -46.32010000     -35.15870000     -66.79240000
S      -41.54010000     -33.25520000     -71.07490000
S      -46.88100000     -35.91760000     -68.97230000
C      -43.19030000     -32.93810000     -71.79550000
H      -43.91420000     -32.72250000     -70.97910000
H      -43.21370000     -31.96400000     -72.25350000
C      -46.30930000     -35.01960000     -70.47450000
H      -46.46090000     -35.64570000     -71.32210000
H      -45.23050000     -35.13480000     -70.52220000
C      -46.82960000     -33.60080000     -70.75470000
H      -47.76430000     -33.44400000     -70.17160000
H      -46.03750000     -32.96510000     -70.49580000
C      -43.81040000     -34.07940000     -72.66290000
H      -44.19780000     -34.75290000     -71.98990000
H      -43.02360000     -34.59630000     -73.30310000
C      -44.83810000     -33.60620000     -73.64020000
C      -44.42880000     -33.12880000     -74.82000000
C      -46.25730000     -33.27160000     -73.32730000
H      -43.45860000     -33.33280000     -75.24610000
C      -46.80380000     -32.68530000     -74.48160000
C      -47.20550000     -33.29940000     -72.26080000
C      -48.44440000     -32.84990000     -72.56170000
S      -45.83080000     -32.54000000     -75.77480000
S      -48.58390000     -32.34010000     -74.28890000
H      -49.34840000     -32.70380000     -71.92290000
