40
Properties=species:S:1:pos:R:3 #=T CELL(abcABC):=T 1.889726e+02=T 90.00000=T Traj:=T positionsangstrom=T Step:=T 0=T Bead:=T pbc="F F F"
C      -47.47050000     -31.32920000     -71.18720000
C      -47.72430000     -32.48190000     -71.95440000
C      -46.81750000     -32.78740000     -72.98580000
C      -45.60890000     -32.06640000     -73.10220000
C      -45.39620000     -30.93310000     -72.29390000
C      -46.35230000     -30.51190000     -71.35990000
H      -48.25060000     -31.01150000     -70.55150000
H      -46.92560000     -33.75280000     -73.56660000
H      -44.54030000     -30.26070000     -72.51270000
H      -46.19390000     -29.61900000     -70.67240000
C      -44.67430000     -32.40060000     -74.29760000
H      -43.78230000     -31.77180000     -74.20220000
H      -45.19490000     -32.10800000     -75.17750000
C      -48.91140000     -33.35770000     -71.70030000
H      -49.75440000     -32.73730000     -71.33700000
H      -49.26180000     -33.90970000     -72.55330000
S      -44.38170000     -34.13440000     -74.71020000
S      -48.49420000     -34.60080000     -70.36950000
C      -42.92470000     -34.90180000     -73.83300000
H      -42.74150000     -35.84290000     -74.28350000
H      -42.08350000     -34.26140000     -73.90280000
C      -47.19370000     -35.57010000     -71.35380000
H      -46.72950000     -34.88720000     -72.05660000
H      -47.62900000     -36.53370000     -71.79470000
C      -46.02850000     -35.97030000     -70.37580000
H      -46.37130000     -36.61180000     -69.55840000
H      -45.35300000     -36.58560000     -70.90520000
C      -43.24040000     -35.25240000     -72.33220000
H      -42.56930000     -36.04040000     -71.98190000
H      -44.17950000     -35.77590000     -72.39910000
C      -43.29910000     -34.12070000     -71.39270000
C      -42.45900000     -33.04990000     -71.39970000
C      -44.17660000     -34.06520000     -70.21000000
H      -41.84030000     -32.83040000     -72.23450000
C      -43.88080000     -32.93780000     -69.43590000
C      -45.37900000     -34.75040000     -69.73040000
C      -45.83730000     -34.09540000     -68.57970000
S      -42.62840000     -31.95710000     -70.02580000
S      -44.89080000     -32.68910000     -68.09030000
H      -46.65270000     -34.37780000     -67.95010000
