40
Properties=species:S:1:pos:R:3 #=T CELL(abcABC):=T 1.889726e+02=T 90.00000=T Traj:=T positionsangstrom=T Step:=T 0=T Bead:=T pbc="F F F"
C      -47.34240000     -31.51270000     -71.34890000
C      -47.47200000     -32.63520000     -72.21020000
C      -46.45420000     -32.88370000     -73.15720000
C      -45.28950000     -32.14280000     -73.18580000
C      -45.10850000     -31.08850000     -72.26510000
C      -46.19080000     -30.73900000     -71.41510000
H      -48.19990000     -31.43130000     -70.57020000
H      -46.52130000     -33.67190000     -73.84260000
H      -44.18970000     -30.56600000     -72.34480000
H      -46.15810000     -29.84360000     -70.86670000
C      -44.26530000     -32.39250000     -74.25600000
H      -43.27400000     -32.04760000     -74.09200000
H      -44.49510000     -31.79940000     -75.11850000
C      -48.70080000     -33.61240000     -72.10760000
H      -49.59630000     -32.97820000     -72.03520000
H      -48.82660000     -34.13630000     -73.08730000
S      -44.22540000     -34.14690000     -74.87730000
S      -48.60270000     -34.67420000     -70.64300000
C      -43.12040000     -35.06880000     -73.62770000
H      -42.98390000     -36.04830000     -74.10660000
H      -42.12700000     -34.63360000     -73.58420000
C      -47.16410000     -35.83450000     -70.88760000
H      -46.67880000     -35.52640000     -71.81120000
H      -47.60830000     -36.80630000     -71.14900000
C      -46.22800000     -35.82360000     -69.75640000
H      -46.75160000     -36.06390000     -68.87810000
H      -45.36750000     -36.47240000     -69.82870000
C      -43.82320000     -35.24840000     -72.29850000
H      -43.58970000     -36.16110000     -71.79160000
H      -44.88140000     -35.36760000     -72.50160000
C      -43.54110000     -34.14540000     -71.27650000
C      -42.63480000     -33.11450000     -71.45110000
C      -44.35110000     -33.87390000     -70.02710000
H      -41.88140000     -33.06840000     -72.27390000
C      -43.94620000     -32.71980000     -69.35470000
C      -45.53300000     -34.47930000     -69.44880000
C      -46.07040000     -33.68750000     -68.44740000
S      -42.56040000     -31.96430000     -70.10540000
S      -45.05390000     -32.38930000     -68.00470000
H      -47.06690000     -33.86620000     -67.88810000
