40
Properties=species:S:1:pos:R:3 #=T CELL(abcABC):=T 1.889726e+02=T 90.00000=T Traj:=T positionsangstrom=T Step:=T 0=T Bead:=T pbc="F F F"
C      -47.14970000     -31.37330000     -70.86950000
C      -47.59760000     -32.33390000     -71.82600000
C      -46.81960000     -32.57740000     -72.97340000
C      -45.65350000     -31.85340000     -73.17960000
C      -45.29980000     -30.82630000     -72.25680000
C      -46.03650000     -30.58430000     -71.08620000
H      -47.80110000     -31.10750000     -70.03400000
H      -47.19090000     -33.24810000     -73.70130000
H      -44.42340000     -30.22480000     -72.33670000
H      -45.76300000     -29.79630000     -70.39060000
C      -44.83120000     -32.30770000     -74.42260000
H      -43.80960000     -31.96530000     -74.52370000
H      -45.42920000     -32.07520000     -75.26760000
C      -48.78240000     -33.24730000     -71.57350000
H      -49.66900000     -32.80320000     -71.14260000
H      -49.08190000     -33.67840000     -72.54140000
S      -44.82280000     -34.13190000     -74.52810000
S      -48.51730000     -34.74560000     -70.51820000
C      -43.18530000     -34.61590000     -73.91380000
H      -42.87230000     -35.40840000     -74.55970000
H      -42.45840000     -33.82790000     -74.01990000
C      -47.01420000     -35.42900000     -71.47830000
H      -46.61820000     -34.62130000     -72.14570000
H      -47.44760000     -36.27370000     -72.06810000
C      -45.96370000     -36.00030000     -70.53380000
H      -46.38440000     -36.65380000     -69.81280000
H      -45.23940000     -36.50090000     -71.16130000
C      -43.23340000     -35.11570000     -72.46970000
H      -42.26630000     -35.63100000     -72.18310000
H      -44.04800000     -35.83060000     -72.49620000
C      -43.34150000     -34.01430000     -71.45140000
C      -42.31200000     -33.16950000     -71.34140000
C      -44.27860000     -33.94630000     -70.35410000
H      -41.45730000     -33.03880000     -71.99740000
C      -43.89760000     -32.92500000     -69.46820000
C      -45.34670000     -34.80410000     -69.79690000
C      -45.75340000     -34.38240000     -68.57140000
S      -42.47670000     -32.06370000     -70.00390000
S      -44.96340000     -32.88250000     -68.10920000
H      -46.30120000     -34.98210000     -67.91920000
