40
Properties=species:S:1:pos:R:3 #=T CELL(abcABC):=T 1.889726e+02=T 90.00000=T Traj:=T positionsangstrom=T Step:=T 0=T Bead:=T pbc="F F F"
C      -47.43800000     -31.22480000     -71.10770000
C      -47.77160000     -32.27590000     -71.92710000
C      -46.93190000     -32.65000000     -72.92910000
C      -45.69000000     -31.98270000     -73.08810000
C      -45.37210000     -30.89150000     -72.27340000
C      -46.21200000     -30.56930000     -71.25660000
H      -47.93330000     -31.09590000     -70.14050000
H      -47.27250000     -33.45580000     -73.58340000
H      -44.44380000     -30.39950000     -72.34020000
H      -46.07680000     -29.75640000     -70.57390000
C      -44.77810000     -32.33790000     -74.20490000
H      -43.76680000     -31.99620000     -73.96010000
H      -44.99180000     -31.72050000     -75.14810000
C      -48.93260000     -33.14720000     -71.63090000
H      -49.54860000     -32.53540000     -70.94310000
H      -49.51680000     -33.44290000     -72.47490000
S      -44.67280000     -34.13790000     -74.72230000
S      -48.46020000     -34.66490000     -70.50660000
C      -43.13250000     -34.62330000     -73.90110000
H      -42.76410000     -35.45580000     -74.56460000
H      -42.40250000     -33.80960000     -74.13430000
C      -47.11210000     -35.66340000     -71.21320000
H      -46.69900000     -35.08660000     -72.03060000
H      -47.53580000     -36.47790000     -71.76050000
C      -45.91620000     -36.07860000     -70.29530000
H      -46.36340000     -36.72750000     -69.47650000
H      -45.25660000     -36.74660000     -70.86720000
C      -43.13800000     -35.13850000     -72.46680000
H      -42.18260000     -35.63160000     -72.39160000
H      -43.92410000     -35.88350000     -72.28250000
C      -43.20760000     -34.10920000     -71.35640000
C      -42.30160000     -33.12490000     -71.32070000
C      -44.14240000     -34.04080000     -70.30130000
H      -41.46610000     -32.92140000     -71.95740000
C      -43.84660000     -32.99930000     -69.45490000
C      -45.21980000     -34.83480000     -69.79280000
C      -45.77040000     -34.33630000     -68.63440000
S      -42.54770000     -31.96660000     -70.03360000
S      -44.92790000     -32.85650000     -68.09980000
H      -46.61080000     -34.60120000     -68.12330000
