40
Properties=species:S:1:pos:R:3 #=T CELL(abcABC):=T 1.889726e+02=T 90.00000=T Traj:=T positionsangstrom=T Step:=T 0=T Bead:=T pbc="F F F"
C      -46.91250000     -31.90660000     -70.66930000
C      -47.39490000     -32.68560000     -71.70990000
C      -46.67310000     -32.63860000     -72.92530000
C      -45.53540000     -31.79510000     -73.11590000
C      -45.10620000     -30.95110000     -72.01770000
C      -45.85660000     -31.00730000     -70.81770000
H      -47.36610000     -31.96840000     -69.65920000
H      -46.98910000     -33.25920000     -73.71350000
H      -44.41130000     -30.19750000     -72.11390000
H      -45.53370000     -30.37440000     -69.99080000
C      -44.91870000     -31.91050000     -74.51250000
H      -44.14870000     -31.13600000     -74.66050000
H      -45.70770000     -31.60520000     -75.23590000
C      -48.72630000     -33.42600000     -71.60710000
H      -49.34680000     -32.73980000     -71.02900000
H      -49.21900000     -33.65190000     -72.57540000
S      -44.38200000     -33.50460000     -75.06980000
S      -48.71370000     -35.03260000     -70.68320000
C      -42.93160000     -34.09460000     -73.96000000
H      -42.55910000     -34.94070000     -74.59790000
H      -42.16940000     -33.30830000     -73.86050000
C      -47.24510000     -35.83660000     -71.47320000
H      -46.98180000     -35.17490000     -72.26080000
H      -47.44270000     -36.83580000     -71.93980000
C      -46.01150000     -36.05400000     -70.58690000
H      -46.19520000     -36.85550000     -69.83400000
H      -45.18570000     -36.37650000     -71.31380000
C      -43.46530000     -34.75530000     -72.64190000
H      -42.78670000     -35.63560000     -72.51210000
H      -44.41000000     -35.23500000     -72.83740000
C      -43.44520000     -33.84780000     -71.44700000
C      -42.56170000     -32.75840000     -71.29090000
C      -44.30450000     -34.02110000     -70.26850000
H      -41.85910000     -32.25870000     -71.94470000
C      -44.00680000     -33.07500000     -69.27290000
C      -45.38170000     -34.88610000     -69.87830000
C      -45.91050000     -34.50490000     -68.67120000
S      -42.63910000     -32.02760000     -69.72430000
S      -45.06990000     -33.04810000     -67.95190000
H      -46.47040000     -35.09610000     -67.97760000
