40
Properties=species:S:1:pos:R:3 #=T CELL(abcABC):=T 1.889726e+02=T 90.00000=T Traj:=T positionsangstrom=T Step:=T 0=T Bead:=T pbc="F F F"
C      -45.64780000     -32.79210000     -67.61690000
C      -44.99870000     -33.97430000     -68.05610000
C      -43.73230000     -33.90340000     -68.58730000
C      -42.98550000     -32.70810000     -68.62200000
C      -43.72280000     -31.55860000     -68.31470000
C      -45.02570000     -31.58660000     -67.74100000
H      -46.66000000     -32.91230000     -67.21290000
H      -43.25920000     -34.86810000     -68.89140000
H      -43.31400000     -30.57630000     -68.30990000
H      -45.47830000     -30.69100000     -67.25640000
C      -41.66680000     -32.65720000     -69.22350000
H      -41.03850000     -33.36830000     -68.62660000
H      -41.20490000     -31.68690000     -69.08790000
C      -45.62290000     -35.31450000     -67.81700000
H      -44.98670000     -36.17650000     -67.96550000
H      -46.07210000     -35.30570000     -66.78560000
S      -41.59700000     -33.33690000     -70.98360000
S      -46.98690000     -35.66250000     -68.97840000
C      -43.24520000     -32.78580000     -71.80480000
H      -43.92520000     -32.42630000     -70.98820000
H      -42.96080000     -32.00150000     -72.47350000
C      -46.20830000     -35.03720000     -70.61760000
H      -46.65940000     -35.73780000     -71.34240000
H      -45.10010000     -35.14940000     -70.57750000
C      -46.73310000     -33.61640000     -70.74560000
H      -47.66150000     -33.47390000     -70.10870000
H      -45.97910000     -32.84630000     -70.43910000
C      -43.74230000     -33.94490000     -72.63880000
H      -44.02620000     -34.81550000     -72.07340000
H      -42.89450000     -34.32870000     -73.34340000
C      -44.81490000     -33.51340000     -73.56690000
C      -44.55520000     -33.20870000     -74.82820000
C      -46.24200000     -33.30710000     -73.28430000
H      -43.59220000     -33.00170000     -75.20950000
C      -46.92610000     -32.91900000     -74.45280000
C      -47.15480000     -33.32440000     -72.17690000
C      -48.38370000     -32.86280000     -72.42440000
S      -45.87830000     -32.69190000     -75.81950000
S      -48.67060000     -32.48980000     -74.14110000
H      -49.23990000     -32.79210000     -71.76320000
