40
Properties=species:S:1:pos:R:3 #=T CELL(abcABC):=T 1.889726e+02=T 90.00000=T Traj:=T positionsangstrom=T Step:=T 0=T Bead:=T pbc="F F F"
C      -46.96950000     -31.44660000     -70.60700000
C      -47.49810000     -32.38920000     -71.52310000
C      -46.84820000     -32.59330000     -72.76170000
C      -45.63000000     -31.97490000     -73.02960000
C      -45.10890000     -31.09750000     -72.06040000
C      -45.75190000     -30.80770000     -70.86330000
H      -47.52750000     -31.06730000     -69.77330000
H      -47.28960000     -33.08250000     -73.63950000
H      -44.22220000     -30.43430000     -72.30590000
H      -45.39820000     -29.95870000     -70.32570000
C      -45.00130000     -32.21090000     -74.39530000
H      -44.01210000     -31.77470000     -74.49090000
H      -45.61960000     -31.70710000     -75.16000000
C      -48.79050000     -33.21880000     -71.36160000
H      -49.50950000     -32.81290000     -70.67710000
H      -49.30570000     -33.08820000     -72.31030000
S      -44.69470000     -33.91520000     -74.81790000
S      -48.55950000     -34.95370000     -70.73940000
C      -43.07890000     -34.37960000     -74.00680000
H      -42.51600000     -34.99520000     -74.67060000
H      -42.49250000     -33.52700000     -73.84970000
C      -47.00440000     -35.42970000     -71.57990000
H      -46.62300000     -34.54090000     -72.10860000
H      -47.25910000     -36.18580000     -72.34540000
C      -45.94820000     -36.02330000     -70.53740000
H      -46.30290000     -36.83380000     -69.86390000
H      -45.16740000     -36.56030000     -71.04420000
C      -43.34910000     -35.01640000     -72.60750000
H      -42.59000000     -35.83660000     -72.46720000
H      -44.34270000     -35.58130000     -72.60470000
C      -43.34780000     -34.01090000     -71.45200000
C      -42.38870000     -33.01490000     -71.40150000
C      -44.26850000     -34.02460000     -70.31260000
H      -41.57150000     -32.83170000     -72.10200000
C      -44.02090000     -32.91520000     -69.49060000
C      -45.29630000     -34.88420000     -69.78030000
C      -45.86760000     -34.43010000     -68.59600000
S      -42.50160000     -32.05880000     -69.94310000
S      -45.13360000     -32.83040000     -68.11510000
H      -46.94310000     -34.63000000     -68.35090000
