40
Properties=species:S:1:pos:R:3 #=T CELL(abcABC):=T 1.889726e+02=T 90.00000=T Traj:=T positionsangstrom=T Step:=T 0=T Bead:=T pbc="F F F"
C      -46.81060000     -31.34920000     -71.71940000
C      -47.21560000     -32.46230000     -72.49890000
C      -46.33330000     -32.96770000     -73.43620000
C      -45.05980000     -32.50400000     -73.59370000
C      -44.70510000     -31.35830000     -72.92370000
C      -45.57210000     -30.78580000     -71.90820000
H      -47.62930000     -30.99450000     -71.00930000
H      -46.76960000     -33.78860000     -74.03210000
H      -43.73700000     -30.84790000     -73.10850000
H      -45.12250000     -30.03910000     -71.24320000
C      -44.17670000     -33.26630000     -74.54390000
H      -43.10740000     -32.87010000     -74.55700000
H      -44.45510000     -33.06800000     -75.62640000
C      -48.50090000     -33.13150000     -72.33100000
H      -49.27030000     -32.42150000     -72.44450000
H      -48.62050000     -33.92460000     -73.08140000
S      -44.20410000     -35.09470000     -74.35610000
S      -48.50120000     -33.95090000     -70.63790000
C      -42.83780000     -35.26260000     -73.10840000
H      -42.40530000     -36.23440000     -73.44290000
H      -42.01640000     -34.53160000     -73.29500000
C      -47.49380000     -35.45790000     -70.93140000
H      -47.02260000     -35.38200000     -71.94440000
H      -48.15510000     -36.30880000     -70.96240000
C      -46.39350000     -35.73090000     -69.89600000
H      -46.87480000     -36.24420000     -69.08540000
H      -45.73220000     -36.51130000     -70.33830000
C      -43.37250000     -35.41170000     -71.72370000
H      -42.63770000     -36.05620000     -71.03050000
H      -44.31080000     -35.99510000     -71.62970000
C      -43.54070000     -34.11060000     -70.96650000
C      -42.59030000     -33.09120000     -70.99060000
C      -44.54130000     -33.84500000     -69.94020000
H      -41.81950000     -33.07570000     -71.74750000
C      -44.35750000     -32.55750000     -69.40560000
C      -45.71210000     -34.47140000     -69.36080000
C      -46.28730000     -33.72850000     -68.40510000
S      -42.99640000     -31.72830000     -70.06680000
S      -45.49950000     -32.16000000     -68.11800000
H      -47.05000000     -34.01750000     -67.71450000
