40
Properties=species:S:1:pos:R:3 #=T CELL(abcABC):=T 1.889726e+02=T 90.00000=T Traj:=T positionsangstrom=T Step:=T 0=T Bead:=T pbc="F F F"
C      -47.27440000     -31.68330000     -71.33420000
C      -47.43960000     -32.75660000     -72.18420000
C      -46.45660000     -33.00250000     -73.11470000
C      -45.32940000     -32.18190000     -73.31060000
C      -45.16440000     -31.09270000     -72.43270000
C      -46.04960000     -30.95870000     -71.36520000
H      -47.92490000     -31.64670000     -70.49140000
H      -46.44760000     -33.94920000     -73.69020000
H      -44.20460000     -30.46820000     -72.42350000
H      -45.90310000     -30.23020000     -70.53270000
C      -44.11300000     -32.48910000     -74.26860000
H      -43.26210000     -32.42330000     -73.56340000
H      -43.87040000     -31.78050000     -75.02010000
C      -48.64230000     -33.70850000     -72.13660000
H      -49.60010000     -33.15700000     -72.31470000
H      -48.64770000     -34.49320000     -72.92850000
S      -43.90520000     -34.19430000     -74.88480000
S      -48.75480000     -34.70160000     -70.55500000
C      -43.12780000     -35.16830000     -73.51570000
H      -43.05130000     -36.11070000     -74.02420000
H      -42.09740000     -34.93660000     -73.34960000
C      -47.38450000     -35.93510000     -70.82310000
H      -47.04530000     -35.87920000     -71.82260000
H      -47.68720000     -36.95200000     -70.68290000
C      -46.29920000     -35.75060000     -69.72630000
H      -46.74650000     -35.95390000     -68.73580000
H      -45.53390000     -36.49200000     -69.84000000
C      -43.92520000     -35.26770000     -72.18730000
H      -43.74870000     -36.20150000     -71.72650000
H      -44.98670000     -35.10220000     -72.33540000
C      -43.60720000     -34.07000000     -71.23490000
C      -42.49770000     -33.27450000     -71.28580000
C      -44.53820000     -33.68030000     -70.21670000
H      -41.74970000     -33.22370000     -71.96530000
C      -44.05810000     -32.57700000     -69.50320000
C      -45.71250000     -34.25570000     -69.56030000
C      -46.14140000     -33.49450000     -68.51120000
S      -42.48490000     -31.98250000     -70.01810000
S      -45.12320000     -32.09620000     -68.18350000
H      -46.97850000     -33.74560000     -67.71300000
