40
Properties=species:S:1:pos:R:3 #=T CELL(abcABC):=T 1.889726e+02=T 90.00000=T Traj:=T positionsangstrom=T Step:=T 0=T Bead:=T pbc="F F F"
C      -47.32480000     -31.23500000     -71.76370000
C      -47.56880000     -32.49260000     -72.38740000
C      -46.56180000     -32.98190000     -73.23300000
C      -45.32940000     -32.29970000     -73.49010000
C      -45.09780000     -31.05210000     -72.89930000
C      -46.10570000     -30.55030000     -72.07330000
H      -48.17850000     -30.77790000     -71.14340000
H      -46.74990000     -33.98240000     -73.69670000
H      -44.10530000     -30.55530000     -73.03570000
H      -45.92390000     -29.53530000     -71.60460000
C      -44.25380000     -32.93860000     -74.28320000
H      -43.23360000     -32.69920000     -73.81670000
H      -44.26130000     -32.57740000     -75.29630000
C      -48.73980000     -33.34660000     -72.15760000
H      -49.61890000     -32.76630000     -72.02360000
H      -48.85810000     -33.92290000     -73.05710000
S      -44.40290000     -34.80810000     -74.49130000
S      -48.60870000     -34.42520000     -70.69320000
C      -43.06750000     -35.30000000     -73.36930000
H      -42.53310000     -36.11570000     -73.90280000
H      -42.36430000     -34.50360000     -73.43860000
C      -47.20470000     -35.58140000     -71.02970000
H      -46.75750000     -35.31390000     -71.94670000
H      -47.59070000     -36.61880000     -71.14490000
C      -46.26960000     -35.63480000     -69.83360000
H      -46.87690000     -35.95660000     -68.95460000
H      -45.56160000     -36.47820000     -70.08650000
C      -43.41970000     -35.42940000     -71.83030000
H      -42.74630000     -36.21810000     -71.41870000
H      -44.39150000     -35.90850000     -71.71780000
C      -43.32930000     -34.13120000     -71.01250000
C      -42.27650000     -33.26250000     -71.00590000
C      -44.31480000     -33.86200000     -69.93420000
H      -41.52810000     -33.20110000     -71.78600000
C      -43.97540000     -32.67160000     -69.33210000
C      -45.57990000     -34.36710000     -69.46550000
C      -46.14730000     -33.63220000     -68.49960000
S      -42.51290000     -31.84440000     -69.92680000
S      -45.22960000     -32.16540000     -68.10810000
H      -46.97810000     -33.96370000     -67.92030000
