40
Properties=species:S:1:pos:R:3 #=T CELL(abcABC):=T 1.889726e+02=T 90.00000=T Traj:=T positionsangstrom=T Step:=T 0=T Bead:=T pbc="F F F"
C      -47.42230000     -31.38860000     -71.69520000
C      -47.58040000     -32.61860000     -72.36060000
C      -46.54960000     -32.98770000     -73.23010000
C      -45.29320000     -32.32850000     -73.23370000
C      -45.12960000     -31.14090000     -72.48910000
C      -46.23540000     -30.62260000     -71.87950000
H      -48.29400000     -31.10950000     -71.00270000
H      -46.50170000     -33.92510000     -73.82560000
H      -44.13840000     -30.68410000     -72.59660000
H      -46.19520000     -29.72780000     -71.28510000
C      -44.24310000     -32.80850000     -74.26960000
H      -43.29410000     -32.45490000     -73.87140000
H      -44.27650000     -32.31820000     -75.26610000
C      -48.81510000     -33.49230000     -72.18200000
H      -49.76220000     -32.94170000     -71.97400000
H      -49.08480000     -34.12520000     -73.07300000
S      -44.19180000     -34.62370000     -74.54550000
S      -48.61240000     -34.47510000     -70.70670000
C      -43.08230000     -35.41360000     -73.32780000
H      -42.93770000     -36.49860000     -73.53950000
H      -42.04200000     -34.99360000     -73.31660000
C      -47.19200000     -35.51740000     -71.15100000
H      -46.63490000     -35.05310000     -71.97640000
H      -47.52040000     -36.52660000     -71.48200000
C      -46.22110000     -35.67610000     -69.87120000
H      -46.84430000     -36.10310000     -69.07240000
H      -45.43400000     -36.37250000     -70.10760000
C      -43.59790000     -35.47970000     -71.83790000
H      -42.96540000     -36.18380000     -71.29310000
H      -44.62520000     -35.85620000     -71.90940000
C      -43.49790000     -34.12600000     -71.10400000
C      -42.41310000     -33.30290000     -71.17740000
C      -44.42990000     -33.71560000     -70.04430000
H      -41.54860000     -33.30420000     -71.92390000
C      -43.96470000     -32.60250000     -69.35130000
C      -45.61520000     -34.31250000     -69.42940000
C      -46.08050000     -33.52210000     -68.39800000
S      -42.45850000     -31.92620000     -70.01540000
S      -45.17000000     -32.08340000     -68.18730000
H      -46.88860000     -33.78060000     -67.74900000
