40
Properties=species:S:1:pos:R:3 #=T CELL(abcABC):=T 1.889726e+02=T 90.00000=T Traj:=T positionsangstrom=T Step:=T 0=T Bead:=T pbc="F F F"
C      -48.05200000     -34.28190000     -71.06750000
C      -47.31250000     -35.32610000     -70.39750000
C      -46.58340000     -34.87160000     -69.30430000
C      -46.49030000     -33.49380000     -69.02160000
C      -47.12150000     -32.53560000     -69.77890000
C      -47.87490000     -32.94270000     -70.88810000
H      -48.51260000     -34.51930000     -72.08670000
H      -45.89350000     -35.49000000     -68.69510000
H      -47.21060000     -31.46550000     -69.48550000
H      -48.43680000     -32.20480000     -71.51270000
C      -45.66110000     -33.10730000     -67.83520000
H      -45.23470000     -33.98190000     -67.37370000
H      -46.29140000     -32.57470000     -67.13690000
C      -47.31210000     -36.74360000     -70.96370000
H      -46.55710000     -37.46570000     -70.57320000
H      -48.26790000     -37.16930000     -70.80720000
S      -44.27070000     -31.90460000     -68.03410000
S      -46.90240000     -36.73730000     -72.81980000
C      -42.76280000     -32.78150000     -68.73010000
H      -41.96120000     -32.04310000     -68.66140000
H      -42.58250000     -33.61270000     -68.08600000
C      -45.09670000     -36.53590000     -73.09380000
H      -45.02490000     -36.41180000     -74.19170000
H      -44.79180000     -37.52900000     -72.86390000
C      -44.32610000     -35.42240000     -72.42410000
H      -44.61360000     -35.51500000     -71.42470000
H      -43.22690000     -35.74220000     -72.61970000
C      -42.99630000     -33.36750000     -70.11190000
H      -43.60870000     -34.33520000     -70.02520000
H      -42.14350000     -33.81020000     -70.61710000
C      -43.60460000     -32.33730000     -71.06650000
C      -43.38970000     -30.98460000     -70.87240000
C      -44.23310000     -32.67130000     -72.27000000
H      -42.79510000     -30.52720000     -70.13000000
C      -44.66950000     -31.58720000     -73.00930000
C      -44.57990000     -33.96750000     -72.91040000
C      -45.06610000     -33.73330000     -74.12700000
S      -44.20080000     -30.05500000     -72.24090000
S      -45.34740000     -32.08190000     -74.55080000
H      -45.40530000     -34.52620000     -74.80580000
