40
Properties=species:S:1:pos:R:3 #=T CELL(abcABC):=T 1.889726e+02=T 90.00000=T Traj:=T positionsangstrom=T Step:=T 0=T Bead:=T pbc="F F F"
C      -47.35550000     -31.58650000     -71.45990000
C      -47.61980000     -32.67120000     -72.34410000
C      -46.57670000     -33.00710000     -73.27090000
C      -45.32920000     -32.33250000     -73.15960000
C      -45.13980000     -31.22120000     -72.37000000
C      -46.22220000     -30.79530000     -71.56300000
H      -48.15080000     -31.25980000     -70.81040000
H      -46.72340000     -33.71020000     -74.06720000
H      -44.23060000     -30.71220000     -72.41880000
H      -46.20490000     -29.86180000     -71.05280000
C      -44.16650000     -32.69970000     -74.07630000
H      -43.25240000     -32.47850000     -73.65720000
H      -44.31220000     -32.16700000     -75.03930000
C      -48.93140000     -33.39750000     -72.24770000
H      -49.75400000     -32.74900000     -71.90620000
H      -49.22150000     -34.04110000     -73.07290000
S      -43.93130000     -34.48720000     -74.68250000
S      -48.76740000     -34.51560000     -70.65790000
C      -42.86020000     -35.40280000     -73.38940000
H      -42.89960000     -36.38170000     -73.72550000
H      -41.89410000     -34.93080000     -73.44930000
C      -47.23580000     -35.57810000     -70.87920000
H      -46.66430000     -35.17190000     -71.73320000
H      -47.66870000     -36.51620000     -71.20370000
C      -46.30950000     -35.68460000     -69.66990000
H      -46.75280000     -36.08390000     -68.76670000
H      -45.48410000     -36.35000000     -69.87670000
C      -43.63070000     -35.45120000     -72.05910000
H      -43.19730000     -36.30270000     -71.54160000
H      -44.67680000     -35.71970000     -72.25140000
C      -43.47940000     -34.21550000     -71.10350000
C      -42.43400000     -33.31600000     -71.18160000
C      -44.43950000     -33.83260000     -70.10290000
H      -41.52820000     -33.46600000     -71.77790000
C      -44.05110000     -32.61820000     -69.51550000
C      -45.64250000     -34.32870000     -69.43990000
C      -46.10310000     -33.48400000     -68.47630000
S      -42.60760000     -31.87970000     -70.16530000
S      -45.04680000     -32.02490000     -68.25530000
H      -46.95190000     -33.69760000     -67.79410000
