40
Properties=species:S:1:pos:R:3 #=T CELL(abcABC):=T 1.889726e+02=T 90.00000=T Traj:=T positionsangstrom=T Step:=T 0=T Bead:=T pbc="F F F"
C      -47.87370000     -34.31020000     -71.35500000
C      -47.29160000     -35.28840000     -70.53380000
C      -46.61910000     -34.80320000     -69.40660000
C      -46.46890000     -33.44590000     -69.17430000
C      -47.11020000     -32.48860000     -69.99230000
C      -47.82080000     -32.94850000     -71.06400000
H      -48.54460000     -34.41640000     -72.21660000
H      -46.27310000     -35.46150000     -68.60810000
H      -46.80450000     -31.47950000     -69.78830000
H      -48.29880000     -32.29980000     -71.79480000
C      -45.73280000     -33.01540000     -67.92330000
H      -45.35300000     -33.86180000     -67.32710000
H      -46.51450000     -32.59900000     -67.23110000
C      -47.11200000     -36.72660000     -70.97350000
H      -46.37510000     -37.23430000     -70.40080000
H      -48.15550000     -37.20970000     -70.79010000
S      -44.30820000     -31.81630000     -68.02190000
S      -46.78220000     -36.78590000     -72.76580000
C      -42.98870000     -32.89770000     -68.57520000
H      -42.12560000     -32.23410000     -68.62500000
H      -42.74800000     -33.69450000     -67.86320000
C      -44.93570000     -36.59610000     -72.70710000
H      -44.42990000     -36.63100000     -73.73330000
H      -44.51370000     -37.38350000     -72.09560000
C      -44.59420000     -35.28390000     -72.14050000
H      -45.13910000     -35.04050000     -71.23330000
H      -43.49710000     -35.36100000     -71.85220000
C      -43.13010000     -33.49740000     -70.03290000
H      -43.85310000     -34.29930000     -70.05580000
H      -42.12830000     -33.92860000     -70.31350000
C      -43.55400000     -32.41110000     -71.03130000
C      -43.41870000     -31.01860000     -70.93550000
C      -44.19350000     -32.76210000     -72.26140000
H      -42.92710000     -30.33470000     -70.24520000
C      -44.46990000     -31.65700000     -73.05960000
C      -44.73860000     -33.98790000     -72.95960000
C      -45.37170000     -33.73630000     -74.11270000
S      -44.20350000     -30.15770000     -72.19780000
S      -45.28810000     -31.97720000     -74.59220000
H      -45.83040000     -34.59230000     -74.71640000
