40
Properties=species:S:1:pos:R:3 #=T CELL(abcABC):=T 1.889726e+02=T 90.00000=T Traj:=T positionsangstrom=T Step:=T 0=T Bead:=T pbc="F F F"
C      -46.72900000     -31.10780000     -71.95810000
C      -47.22090000     -32.36260000     -72.45520000
C      -46.36570000     -33.02130000     -73.36500000
C      -45.07610000     -32.53430000     -73.61190000
C      -44.62130000     -31.33730000     -73.00040000
C      -45.49070000     -30.59920000     -72.24880000
H      -47.42620000     -30.55380000     -71.32360000
H      -46.80200000     -33.71570000     -74.02310000
H      -43.60950000     -30.97930000     -73.26400000
H      -45.19830000     -29.54620000     -71.71720000
C      -44.13010000     -33.18630000     -74.57560000
H      -43.11040000     -32.75050000     -74.38070000
H      -44.38710000     -33.00940000     -75.62300000
C      -48.57560000     -32.79250000     -72.05300000
H      -49.02410000     -32.02960000     -71.36610000
H      -49.21860000     -32.64980000     -72.98660000
S      -44.17640000     -35.03260000     -74.29380000
S      -48.81540000     -34.48460000     -71.29510000
C      -42.94020000     -35.57250000     -72.98370000
H      -42.65610000     -36.59240000     -73.18750000
H      -42.08290000     -34.94090000     -73.14290000
C      -47.23570000     -35.41190000     -71.27950000
H      -46.50950000     -35.11210000     -72.06580000
H      -47.51560000     -36.43860000     -71.54870000
C      -46.68050000     -35.44050000     -69.79360000
H      -47.48110000     -35.64050000     -69.07310000
H      -46.06450000     -36.32320000     -69.68730000
C      -43.55790000     -35.47190000     -71.58480000
H      -43.09730000     -36.22850000     -70.86870000
H      -44.58220000     -35.89260000     -71.61580000
C      -43.56820000     -34.14710000     -70.84170000
C      -42.45680000     -33.33170000     -70.81120000
C      -44.61150000     -33.70190000     -69.93790000
H      -41.43720000     -33.34340000     -71.25470000
C      -44.30070000     -32.47170000     -69.29090000
C      -45.89280000     -34.19890000     -69.38410000
C      -46.40960000     -33.38760000     -68.38000000
S      -42.60720000     -32.05770000     -69.61320000
S      -45.43940000     -31.98240000     -68.06570000
H      -47.39020000     -33.59750000     -67.85080000
