40
Properties=species:S:1:pos:R:3 #=T CELL(abcABC):=T 1.889726e+02=T 90.00000=T Traj:=T positionsangstrom=T Step:=T 0=T Bead:=T pbc="F F F"
C      -43.91100000     -30.47380000     -71.16740000
C      -45.19730000     -30.27780000     -70.78710000
C      -46.21320000     -30.53120000     -71.72230000
C      -45.92980000     -30.74960000     -73.03200000
C      -44.59510000     -30.80430000     -73.45420000
C      -43.55820000     -30.75610000     -72.49600000
H      -43.12400000     -30.48280000     -70.39190000
H      -47.23930000     -30.56180000     -71.29540000
H      -44.41060000     -30.95380000     -74.51540000
H      -42.50670000     -30.83970000     -72.79880000
C      -47.10300000     -30.96760000     -74.03190000
H      -46.73670000     -30.67000000     -75.05910000
H      -47.98670000     -30.29670000     -73.71330000
C      -45.55090000     -30.00010000     -69.33610000
H      -44.94230000     -29.21930000     -68.84920000
H      -46.60740000     -29.67250000     -69.28560000
S      -47.64540000     -32.73700000     -74.25460000
S      -45.20250000     -31.48600000     -68.26500000
C      -46.16070000     -33.78390000     -73.73050000
H      -45.57390000     -34.01540000     -74.61730000
H      -45.51600000     -33.24850000     -73.06600000
C      -46.72000000     -32.56260000     -68.74130000
H      -47.57780000     -31.92080000     -68.88770000
H      -47.05010000     -33.10690000     -67.86380000
C      -46.65420000     -33.45280000     -69.97700000
H      -47.63560000     -33.87720000     -70.06160000
H      -46.59650000     -32.96790000     -70.91490000
C      -46.76620000     -34.99480000     -73.05490000
H      -47.23600000     -35.54170000     -73.97030000
H      -47.56460000     -34.75410000     -72.33410000
C      -45.62800000     -35.76020000     -72.34170000
C      -44.92500000     -36.80530000     -72.89030000
C      -45.11770000     -35.29190000     -71.07880000
H      -45.17240000     -37.32690000     -73.82480000
C      -43.94050000     -36.01250000     -70.71250000
C      -45.51750000     -34.47200000     -69.98870000
C      -44.68680000     -34.55460000     -68.88500000
S      -43.60300000     -37.35450000     -71.81050000
S      -43.38190000     -35.72190000     -69.16040000
H      -44.92410000     -34.09370000     -67.97230000
