40
Properties=species:S:1:pos:R:3 #=T CELL(abcABC):=T 1.889726e+02=T 90.00000=T Traj:=T positionsangstrom=T Step:=T 0=T Bead:=T pbc="F F F"
C      -48.65160000     -35.71900000     -69.81280000
C      -48.63760000     -34.81480000     -70.96970000
C      -48.58730000     -33.42800000     -70.79790000
C      -48.48670000     -32.93780000     -69.48870000
C      -48.50290000     -33.82470000     -68.38920000
C      -48.64340000     -35.19270000     -68.55140000
H      -48.62540000     -36.79630000     -69.86290000
H      -48.67780000     -32.77130000     -71.67220000
H      -48.49470000     -33.44200000     -67.37070000
H      -48.57840000     -35.92220000     -67.78850000
C      -48.29650000     -31.46790000     -69.30590000
H      -48.05050000     -31.20690000     -68.24840000
H      -49.21440000     -30.91230000     -69.35430000
C      -48.81580000     -35.47150000     -72.33300000
H      -48.62340000     -36.53240000     -72.14050000
H      -49.71300000     -35.31570000     -72.79330000
S      -47.09970000     -30.79320000     -70.44130000
S      -47.62120000     -34.83300000     -73.61970000
C      -45.56740000     -31.78180000     -70.30660000
H      -45.23970000     -31.91860000     -69.17340000
H      -45.75700000     -32.75310000     -70.78570000
C      -45.93680000     -34.86180000     -72.93260000
H      -45.35680000     -35.71500000     -73.06840000
H      -46.09530000     -34.81900000     -71.86140000
C      -45.12390000     -33.62290000     -73.41490000
H      -45.10710000     -33.61010000     -74.50090000
H      -45.66010000     -32.66200000     -73.05450000
C      -44.43390000     -31.02850000     -71.08620000
H      -44.38060000     -30.10590000     -70.50650000
H      -44.71210000     -30.84040000     -72.10250000
C      -43.10220000     -31.75750000     -71.04560000
C      -42.05300000     -31.43910000     -70.24180000
C      -42.86930000     -32.90300000     -71.91300000
H      -42.00500000     -30.60210000     -69.53190000
C      -41.59300000     -33.45760000     -71.66570000
C      -43.59670000     -33.62740000     -72.96870000
C      -42.80800000     -34.59780000     -73.48250000
S      -40.70920000     -32.55780000     -70.40310000
S      -41.30010000     -34.93420000     -72.64820000
H      -43.07510000     -35.26570000     -74.30730000
