40
Properties=species:S:1:pos:R:3 #=T CELL(abcABC):=T 1.889726e+02=T 90.00000=T Traj:=T positionsangstrom=T Step:=T 0=T Bead:=T pbc="F F F"
C      -46.82850000     -31.05850000     -71.81790000
C      -47.18960000     -32.28930000     -72.37390000
C      -46.28690000     -32.98070000     -73.18600000
C      -45.02680000     -32.49810000     -73.44890000
C      -44.67250000     -31.23450000     -72.90730000
C      -45.54290000     -30.55220000     -72.07300000
H      -47.48080000     -30.52570000     -71.18860000
H      -46.58860000     -33.93440000     -73.58540000
H      -43.70880000     -30.86810000     -73.18160000
H      -45.35130000     -29.45010000     -71.64100000
C      -44.13510000     -33.33540000     -74.36060000
H      -43.04890000     -33.04760000     -74.32110000
H      -44.31440000     -33.03360000     -75.39580000
C      -48.55620000     -32.88750000     -72.27320000
H      -49.27030000     -32.26620000     -71.68280000
H      -48.95220000     -33.09540000     -73.23010000
S      -44.16030000     -35.21590000     -74.39750000
S      -48.72150000     -34.44600000     -71.21400000
C      -42.96300000     -35.49430000     -72.96580000
H      -42.47040000     -36.50350000     -73.01460000
H      -42.21630000     -34.69650000     -73.19460000
C      -47.20940000     -35.47140000     -71.29420000
H      -46.53000000     -35.19240000     -72.04210000
H      -47.55900000     -36.49500000     -71.63750000
C      -46.42980000     -35.53770000     -69.90840000
H      -47.18880000     -35.91550000     -69.13340000
H      -45.67200000     -36.28850000     -70.04090000
C      -43.55370000     -35.41400000     -71.55530000
H      -43.06000000     -36.20010000     -70.97600000
H      -44.62800000     -35.66880000     -71.70890000
C      -43.58000000     -34.13380000     -70.81810000
C      -42.58650000     -33.19930000     -70.93740000
C      -44.56690000     -33.76320000     -69.82780000
H      -41.74290000     -33.25690000     -71.59070000
C      -44.28070000     -32.53990000     -69.27580000
C      -45.84570000     -34.28330000     -69.35990000
C      -46.42840000     -33.47100000     -68.42380000
S      -42.83830000     -31.77200000     -69.91990000
S      -45.39390000     -32.07700000     -67.99330000
H      -47.55670000     -33.58400000     -68.16260000
