40
Properties=species:S:1:pos:R:3 #=T CELL(abcABC):=T 1.889726e+02=T 90.00000=T Traj:=T positionsangstrom=T Step:=T 0=T Bead:=T pbc="F F F"
C      -43.90530000     -30.15100000     -71.11650000
C      -45.24500000     -30.03240000     -70.67510000
C      -46.26140000     -30.37570000     -71.58900000
C      -46.01360000     -30.81930000     -72.90390000
C      -44.68020000     -31.07320000     -73.19950000
C      -43.59290000     -30.74620000     -72.36060000
H      -43.13050000     -29.87420000     -70.36660000
H      -47.30730000     -30.22370000     -71.24700000
H      -44.42780000     -31.42890000     -74.20660000
H      -42.58110000     -31.04980000     -72.60130000
C      -47.06630000     -31.01330000     -73.94130000
H      -46.73210000     -30.57920000     -74.86610000
H      -47.96960000     -30.51920000     -73.65680000
C      -45.52940000     -29.86730000     -69.21670000
H      -44.80590000     -29.25680000     -68.64970000
H      -46.58550000     -29.61400000     -69.04230000
S      -47.60820000     -32.74760000     -74.29780000
S      -45.28290000     -31.59380000     -68.39980000
C      -46.36080000     -33.92900000     -73.81020000
H      -45.79280000     -34.32570000     -74.63770000
H      -45.68350000     -33.36760000     -73.11640000
C      -46.76830000     -32.58940000     -68.79770000
H      -47.66660000     -31.96400000     -68.96440000
H      -46.85950000     -33.23060000     -67.89310000
C      -46.58090000     -33.52350000     -70.02260000
H      -47.53320000     -34.18320000     -70.22980000
H      -46.48250000     -32.75210000     -70.84860000
C      -46.90160000     -35.14990000     -72.99800000
H      -47.31650000     -35.93210000     -73.57800000
H      -47.65870000     -34.73190000     -72.35480000
C      -45.71750000     -35.80390000     -72.25970000
C      -44.91550000     -36.68510000     -72.93570000
C      -45.22570000     -35.48620000     -70.94280000
H      -45.17520000     -37.13250000     -73.83500000
C      -43.95990000     -36.11520000     -70.68150000
C      -45.46460000     -34.51140000     -69.97070000
C      -44.46210000     -34.48860000     -68.98840000
S      -43.53100000     -37.22510000     -72.00070000
S      -43.24100000     -35.67660000     -69.21130000
H      -44.41740000     -33.86930000     -68.11750000
