40
Properties=species:S:1:pos:R:3 #=T CELL(abcABC):=T 1.889726e+02=T 90.00000=T Traj:=T positionsangstrom=T Step:=T 0=T Bead:=T pbc="F F F"
C      -43.96430000     -30.41380000     -70.98770000
C      -45.33060000     -30.27050000     -70.69140000
C      -46.26850000     -30.47320000     -71.67350000
C      -45.90250000     -30.85780000     -72.93340000
C      -44.54630000     -30.84680000     -73.27740000
C      -43.56610000     -30.68000000     -72.30810000
H      -43.34670000     -30.02170000     -70.17050000
H      -47.28950000     -30.51400000     -71.40830000
H      -44.27150000     -31.13590000     -74.29850000
H      -42.46910000     -30.74900000     -72.51880000
C      -47.00730000     -31.05370000     -73.96060000
H      -46.66450000     -30.63350000     -74.94190000
H      -47.89230000     -30.41290000     -73.67970000
C      -45.69070000     -29.91560000     -69.23630000
H      -45.06210000     -29.11370000     -68.90500000
H      -46.64940000     -29.48340000     -69.04150000
S      -47.74710000     -32.78050000     -74.22060000
S      -45.41580000     -31.39090000     -68.20900000
C      -46.29840000     -33.85980000     -73.77880000
H      -45.86770000     -34.25880000     -74.73150000
H      -45.43680000     -33.33480000     -73.32840000
C      -46.78850000     -32.48930000     -68.77800000
H      -47.55000000     -31.75070000     -69.04340000
H      -47.10800000     -32.92020000     -67.79150000
C      -46.53880000     -33.49040000     -70.01950000
H      -47.38180000     -34.01860000     -70.24340000
H      -46.29820000     -32.80330000     -70.82740000
C      -46.84990000     -35.02230000     -72.89830000
H      -47.42030000     -35.60900000     -73.51510000
H      -47.63760000     -34.68540000     -72.12790000
C      -45.66280000     -35.76060000     -72.36200000
C      -44.99790000     -36.81220000     -72.93670000
C      -45.06770000     -35.42400000     -71.03350000
H      -45.07110000     -37.21920000     -73.87960000
C      -43.86470000     -36.11730000     -70.84060000
C      -45.42770000     -34.53270000     -69.95050000
C      -44.55160000     -34.64990000     -68.85780000
S      -43.44730000     -37.22530000     -72.16670000
S      -43.18620000     -35.77120000     -69.26530000
H      -44.36430000     -34.08050000     -67.92770000
