40
Properties=species:S:1:pos:R:3 #=T CELL(abcABC):=T 1.889726e+02=T 90.00000=T Traj:=T positionsangstrom=T Step:=T 0=T Bead:=T pbc="F F F"
C      -40.81150000     -33.30660000     -71.37260000
C      -41.65480000     -33.83230000     -70.31480000
C      -42.54420000     -34.91340000     -70.65920000
C      -42.62540000     -35.43080000     -71.97750000
C      -41.80910000     -34.83430000     -72.97960000
C      -40.95150000     -33.78770000     -72.65810000
H      -40.20740000     -32.47290000     -71.07780000
H      -43.16060000     -35.36990000     -69.89940000
H      -41.85850000     -35.26760000     -73.94800000
H      -40.30860000     -33.41830000     -73.47190000
C      -43.45570000     -36.70960000     -72.15410000
H      -43.93830000     -36.96110000     -71.22630000
H      -42.70570000     -37.43680000     -72.38090000
C      -41.66980000     -33.15960000     -68.94470000
H      -41.91420000     -33.95210000     -68.21130000
H      -40.67230000     -32.78880000     -68.76140000
S      -44.80820000     -36.56840000     -73.40980000
S      -42.88960000     -31.79160000     -68.85070000
C      -45.83130000     -35.01130000     -73.09870000
H      -45.11900000     -34.19870000     -73.03310000
H      -46.35560000     -34.92100000     -74.05770000
C      -44.12440000     -31.78490000     -70.16090000
H      -43.60250000     -32.06870000     -71.09930000
H      -44.38240000     -30.71140000     -70.24640000
C      -45.32680000     -32.68290000     -69.75250000
H      -45.01160000     -33.64010000     -70.12720000
H      -45.52980000     -32.72730000     -68.67830000
C      -46.79900000     -35.07880000     -71.93520000
H      -46.32480000     -35.19600000     -70.93770000
H      -47.25480000     -36.03560000     -72.12910000
C      -47.81390000     -33.99320000     -71.84150000
C      -48.96220000     -34.05000000     -72.52090000
C      -47.67690000     -32.71000000     -71.13160000
H      -49.32770000     -34.86340000     -73.09560000
C      -48.69480000     -31.83060000     -71.36940000
C      -46.57720000     -32.16940000     -70.38400000
C      -46.85590000     -30.84740000     -70.04400000
S      -50.00150000     -32.57940000     -72.33440000
S      -48.45430000     -30.25980000     -70.68390000
H      -46.34940000     -30.17210000     -69.34550000
