40
Properties=species:S:1:pos:R:3 #=T CELL(abcABC):=T 1.889726e+02=T 90.00000=T Traj:=T positionsangstrom=T Step:=T 0=T Bead:=T pbc="F F F"
C      -43.80550000     -29.78660000     -71.51770000
C      -44.90810000     -30.21990000     -70.76450000
C      -46.02440000     -30.57530000     -71.51240000
C      -46.18960000     -30.49020000     -72.89140000
C      -45.13620000     -29.95330000     -73.60260000
C      -44.00910000     -29.55940000     -72.86420000
H      -42.87080000     -29.46950000     -71.01540000
H      -46.95360000     -30.80610000     -71.06190000
H      -45.16090000     -29.69390000     -74.66840000
H      -43.22900000     -28.93410000     -73.37900000
C      -47.52530000     -30.80240000     -73.58570000
H      -47.26520000     -31.01690000     -74.67160000
H      -48.27400000     -30.02450000     -73.62640000
C      -44.96930000     -30.20340000     -69.24960000
H      -44.51600000     -29.34430000     -68.89060000
H      -46.01570000     -30.17230000     -69.01820000
S      -48.36160000     -32.26190000     -72.97550000
S      -44.25320000     -31.82210000     -68.51020000
C      -47.03020000     -33.53730000     -73.34850000
H      -47.26040000     -33.85950000     -74.35850000
H      -45.93130000     -33.13940000     -73.25490000
C      -45.71880000     -32.84750000     -68.25820000
H      -46.55680000     -32.17140000     -68.23120000
H      -45.68620000     -33.26900000     -67.27090000
C      -46.11470000     -33.85970000     -69.33070000
H      -46.94120000     -34.47800000     -68.90490000
H      -46.47950000     -33.26060000     -70.16670000
C      -47.23600000     -34.76100000     -72.38680000
H      -48.10290000     -35.22390000     -72.83000000
H      -47.54450000     -34.33630000     -71.40920000
C      -46.07610000     -35.67500000     -72.25400000
C      -45.53980000     -36.53300000     -73.21690000
C      -45.16280000     -35.62660000     -71.08940000
H      -45.93440000     -36.57010000     -74.21390000
C      -44.09170000     -36.46400000     -71.25740000
C      -45.08570000     -34.85280000     -69.81840000
C      -43.96020000     -35.13830000     -69.11450000
S      -44.10620000     -37.39620000     -72.73960000
S      -42.96080000     -36.42440000     -69.91060000
H      -43.61960000     -34.79840000     -68.17880000
