40
Properties=species:S:1:pos:R:3 #=T CELL(abcABC):=T 1.889726e+02=T 90.00000=T Traj:=T positionsangstrom=T Step:=T 0=T Bead:=T pbc="F F F"
C      -43.98380000     -29.66890000     -71.36670000
C      -45.07630000     -30.18160000     -70.76660000
C      -46.19540000     -30.54020000     -71.52090000
C      -46.25540000     -30.41660000     -72.91240000
C      -45.05330000     -29.98560000     -73.51940000
C      -43.91920000     -29.69290000     -72.76690000
H      -43.14290000     -29.46890000     -70.69310000
H      -47.14200000     -30.81210000     -71.00700000
H      -44.94220000     -29.88990000     -74.59960000
H      -43.05000000     -29.54770000     -73.29210000
C      -47.41950000     -30.91200000     -73.82600000
H      -47.08850000     -31.06050000     -74.85960000
H      -48.23240000     -30.12780000     -73.83800000
C      -45.19160000     -30.24470000     -69.18830000
H      -44.51900000     -29.48360000     -68.72660000
H      -46.14610000     -30.00240000     -68.72930000
S      -48.23690000     -32.46020000     -73.19490000
S      -44.38370000     -31.84170000     -68.54610000
C      -46.74600000     -33.52970000     -73.18660000
H      -46.28080000     -33.69820000     -74.25370000
H      -45.89100000     -33.14700000     -72.64750000
C      -45.92590000     -32.86950000     -68.32730000
H      -46.70970000     -32.18300000     -68.16440000
H      -45.85050000     -33.49610000     -67.45260000
C      -46.27470000     -33.74810000     -69.58350000
H      -47.16610000     -34.31950000     -69.34850000
H      -46.47270000     -33.06760000     -70.37540000
C      -47.12700000     -34.93970000     -72.52170000
H      -47.81700000     -35.43480000     -73.22460000
H      -47.65760000     -34.70370000     -71.60330000
C      -45.97090000     -35.75510000     -72.24390000
C      -45.49150000     -36.72790000     -73.06120000
C      -45.09960000     -35.55220000     -71.12610000
H      -46.01120000     -37.19060000     -73.94020000
C      -43.92890000     -36.34180000     -71.17950000
C      -45.14520000     -34.72040000     -69.97040000
C      -44.16810000     -35.06120000     -69.10630000
S      -43.89970000     -37.38760000     -72.59070000
S      -43.02570000     -36.16410000     -69.77010000
H      -43.90500000     -34.52690000     -68.15940000
