40
Properties=species:S:1:pos:R:3 #=T CELL(abcABC):=T 1.889726e+02=T 90.00000=T Traj:=T positionsangstrom=T Step:=T 0=T Bead:=T pbc="F F F"
C      -44.02320000     -30.05950000     -71.09770000
C      -45.34550000     -30.30500000     -70.63660000
C      -46.37840000     -30.64150000     -71.56050000
C      -46.13020000     -30.75630000     -72.88600000
C      -44.87040000     -30.46580000     -73.38370000
C      -43.82910000     -30.09620000     -72.49270000
H      -43.29760000     -29.65210000     -70.35120000
H      -47.39310000     -30.63380000     -71.19870000
H      -44.75500000     -30.36790000     -74.47030000
H      -42.87740000     -29.72380000     -72.88750000
C      -47.27370000     -31.00510000     -73.82880000
H      -46.95450000     -30.80330000     -74.84510000
H      -48.14760000     -30.32290000     -73.59320000
C      -45.69890000     -30.10670000     -69.21460000
H      -45.20930000     -29.27590000     -68.84660000
H      -46.75680000     -30.03780000     -68.98990000
S      -48.10730000     -32.62560000     -73.79940000
S      -44.89470000     -31.45500000     -68.20210000
C      -46.60860000     -33.62210000     -73.46550000
H      -46.06220000     -33.78710000     -74.39570000
H      -45.89710000     -33.08420000     -72.80350000
C      -46.23170000     -32.76200000     -68.44200000
H      -47.16660000     -32.26690000     -68.40990000
H      -46.25010000     -33.32500000     -67.48320000
C      -46.09520000     -33.48490000     -69.77470000
H      -47.11210000     -33.73750000     -69.94940000
H      -45.87330000     -32.72650000     -70.66390000
C      -47.02360000     -34.94610000     -72.80290000
H      -47.52190000     -35.58340000     -73.51560000
H      -47.73810000     -34.72900000     -71.94190000
C      -45.77440000     -35.66580000     -72.30460000
C      -45.15970000     -36.64520000     -73.16760000
C      -45.00580000     -35.42740000     -71.07860000
H      -45.61190000     -37.04580000     -74.04650000
C      -43.91320000     -36.25470000     -71.08780000
C      -45.10730000     -34.63140000     -69.87180000
C      -44.07310000     -34.88460000     -69.01200000
S      -43.73380000     -37.28410000     -72.46350000
S      -42.95170000     -36.18190000     -69.61260000
H      -44.02820000     -34.43130000     -68.07560000
