40
Properties=species:S:1:pos:R:3 #=T CELL(abcABC):=T 1.889726e+02=T 90.00000=T Traj:=T positionsangstrom=T Step:=T 0=T Bead:=T pbc="F F F"
C      -46.36460000     -31.14430000     -72.31650000
C      -46.91220000     -32.21700000     -73.04510000
C      -46.25260000     -32.85110000     -74.09130000
C      -44.98760000     -32.40750000     -74.49640000
C      -44.38220000     -31.42640000     -73.75890000
C      -45.07860000     -30.78610000     -72.69850000
H      -46.96420000     -30.75980000     -71.51930000
H      -46.70710000     -33.70310000     -74.56870000
H      -43.28800000     -31.22670000     -73.88200000
H      -44.59290000     -29.94960000     -72.15210000
C      -44.17680000     -33.22800000     -75.49730000
H      -43.27010000     -32.70930000     -75.77550000
H      -44.62530000     -33.56070000     -76.46140000
C      -48.31190000     -32.59640000     -72.66250000
H      -48.90310000     -31.64610000     -72.62320000
H      -48.81480000     -33.30150000     -73.33370000
S      -43.92690000     -34.92980000     -74.79280000
S      -48.64630000     -33.26950000     -70.92780000
C      -43.23720000     -34.56350000     -73.11480000
H      -42.29820000     -35.15120000     -73.15730000
H      -43.03580000     -33.50390000     -72.98570000
C      -47.56520000     -34.76170000     -71.13180000
H      -46.75230000     -34.37830000     -71.70470000
H      -48.08740000     -35.47240000     -71.72320000
C      -46.99080000     -35.40560000     -69.87520000
H      -47.79590000     -35.77990000     -69.20260000
H      -46.50800000     -36.38730000     -70.10310000
C      -44.33500000     -34.82120000     -72.04610000
H      -44.47780000     -35.87260000     -71.84850000
H      -45.19080000     -34.30360000     -72.47580000
C      -44.04110000     -34.04470000     -70.70830000
C      -42.85380000     -33.32490000     -70.56720000
C      -44.76570000     -34.04940000     -69.47930000
H      -42.17510000     -33.01200000     -71.37890000
C      -44.21400000     -33.25440000     -68.49720000
C      -46.03970000     -34.60370000     -69.08630000
C      -46.43840000     -34.15280000     -67.89760000
S      -42.69350000     -32.55380000     -68.96920000
S      -45.26260000     -33.10200000     -67.06600000
H      -47.38930000     -34.36940000     -67.49630000
