40
Properties=species:S:1:pos:R:3 #=T CELL(abcABC):=T 1.889726e+02=T 90.00000=T Traj:=T positionsangstrom=T Step:=T 0=T Bead:=T pbc="F F F"
C      -45.51120000     -32.78780000     -67.38410000
C      -44.95250000     -33.99720000     -67.86070000
C      -43.73030000     -33.90970000     -68.52330000
C      -43.06310000     -32.67990000     -68.75310000
C      -43.59750000     -31.48260000     -68.26390000
C      -44.78170000     -31.57390000     -67.52170000
H      -46.54000000     -32.71500000     -67.04620000
H      -43.20330000     -34.79640000     -68.92240000
H      -43.07840000     -30.59280000     -68.47460000
H      -45.24650000     -30.67960000     -67.08420000
C      -41.70440000     -32.63460000     -69.47330000
H      -40.96080000     -33.15820000     -68.86950000
H      -41.36740000     -31.55380000     -69.38820000
C      -45.66850000     -35.32620000     -67.78450000
H      -45.15810000     -36.05110000     -68.40090000
H      -45.92890000     -35.71690000     -66.74010000
S      -41.51920000     -33.29800000     -71.17580000
S      -47.39820000     -35.17880000     -68.54020000
C      -43.08940000     -32.91070000     -72.04500000
H      -43.67960000     -32.44360000     -71.33830000
H      -42.78800000     -32.13430000     -72.79280000
C      -47.17280000     -35.08790000     -70.34290000
H      -48.21020000     -35.13870000     -70.74750000
H      -46.59130000     -35.88580000     -70.74690000
C      -46.52560000     -33.77380000     -70.85200000
H      -46.78440000     -33.10510000     -70.02870000
H      -45.49250000     -33.97180000     -70.88480000
C      -43.68000000     -34.12700000     -72.69640000
H      -44.07180000     -34.79220000     -71.91360000
H      -42.88410000     -34.62590000     -73.27120000
C      -44.76300000     -33.67380000     -73.71260000
C      -44.49440000     -33.60480000     -75.03300000
C      -46.10770000     -33.23360000     -73.35160000
H      -43.59730000     -33.80250000     -75.60730000
C      -46.78660000     -32.68960000     -74.45130000
C      -46.96280000     -33.38560000     -72.20000000
C      -48.26960000     -32.89290000     -72.44390000
S      -45.86640000     -32.86310000     -75.96690000
S      -48.53210000     -32.49810000     -74.12120000
H      -49.16480000     -32.89460000     -71.88380000
