40
Properties=species:S:1:pos:R:3 #=T CELL(abcABC):=T 1.889726e+02=T 90.00000=T Traj:=T positionsangstrom=T Step:=T 0=T Bead:=T pbc="F F F"
C      -43.78700000     -30.04450000     -71.34140000
C      -44.95950000     -30.10060000     -70.55230000
C      -46.12980000     -30.40580000     -71.25500000
C      -46.27810000     -30.37600000     -72.66530000
C      -45.11500000     -30.12460000     -73.39120000
C      -43.88780000     -29.95130000     -72.74980000
H      -42.85720000     -29.69100000     -70.92450000
H      -47.01160000     -30.65700000     -70.69170000
H      -45.10530000     -29.94620000     -74.45460000
H      -42.99130000     -29.74640000     -73.27310000
C      -47.67160000     -30.51590000     -73.33200000
H      -47.60220000     -30.31270000     -74.40580000
H      -48.29040000     -29.67840000     -72.90530000
C      -44.74770000     -30.18310000     -69.08430000
H      -44.01250000     -29.47320000     -68.86130000
H      -45.59030000     -30.09330000     -68.45030000
S      -48.44590000     -32.19700000     -73.03520000
S      -43.99490000     -31.77850000     -68.63510000
C      -47.03810000     -33.40080000     -73.13780000
H      -46.73810000     -33.61240000     -74.14120000
H      -46.25860000     -32.88300000     -72.76430000
C      -45.42290000     -32.95710000     -68.22440000
H      -46.26010000     -32.45710000     -67.79510000
H      -45.04830000     -33.61050000     -67.44310000
C      -45.96090000     -33.79460000     -69.40800000
H      -46.92600000     -34.23360000     -69.08530000
H      -46.27530000     -33.21400000     -70.35190000
C      -47.34390000     -34.72410000     -72.42180000
H      -48.17040000     -35.09860000     -73.04160000
H      -47.86340000     -34.57600000     -71.44350000
C      -46.12970000     -35.61230000     -72.32590000
C      -45.67250000     -36.40180000     -73.38160000
C      -45.27720000     -35.65330000     -71.15130000
H      -46.21380000     -36.53670000     -74.24550000
C      -44.25340000     -36.61370000     -71.33750000
C      -45.02170000     -34.84820000     -69.89890000
C      -43.90350000     -35.27040000     -69.22720000
S      -44.26790000     -37.34330000     -72.92620000
S      -43.01710000     -36.55000000     -70.06060000
H      -43.52530000     -34.78620000     -68.31430000
