40
Properties=species:S:1:pos:R:3 #=T CELL(abcABC):=T 1.889726e+02=T 90.00000=T Traj:=T positionsangstrom=T Step:=T 0=T Bead:=T pbc="F F F"
C      -43.75980000     -30.54000000     -70.98680000
C      -44.83940000     -30.50620000     -70.08390000
C      -46.18510000     -30.42230000     -70.59120000
C      -46.44960000     -30.29710000     -71.94090000
C      -45.33580000     -30.35380000     -72.77480000
C      -44.01000000     -30.38400000     -72.36600000
H      -42.73690000     -30.60500000     -70.61440000
H      -46.95120000     -30.34380000     -69.81280000
H      -45.55070000     -30.20410000     -73.82970000
H      -43.25150000     -30.19890000     -73.10100000
C      -47.77860000     -30.25790000     -72.56860000
H      -47.87060000     -29.92300000     -73.56030000
H      -48.34310000     -29.43910000     -72.07240000
C      -44.41540000     -30.58200000     -68.60080000
H      -43.70970000     -29.76740000     -68.35900000
H      -45.30760000     -30.51060000     -67.95960000
S      -48.63650000     -31.89700000     -72.26990000
S      -43.65320000     -32.25050000     -68.18040000
C      -47.40630000     -33.17980000     -72.93190000
H      -47.53260000     -33.03460000     -73.98840000
H      -46.48520000     -32.81500000     -72.57990000
C      -45.03940000     -33.44930000     -68.26510000
H      -45.76000000     -32.95710000     -67.58500000
H      -44.63230000     -34.43210000     -67.86920000
C      -45.58380000     -33.73230000     -69.64600000
H      -46.55860000     -34.30660000     -69.48190000
H      -45.81390000     -32.84900000     -70.19070000
C      -47.68020000     -34.61680000     -72.45760000
H      -48.43550000     -35.04310000     -73.06190000
H      -48.01710000     -34.68830000     -71.42580000
C      -46.41960000     -35.49840000     -72.53680000
C      -46.26950000     -36.39010000     -73.56350000
C      -45.19690000     -35.41140000     -71.63620000
H      -46.94050000     -36.65580000     -74.39390000
C      -44.15520000     -36.19600000     -72.18190000
C      -44.75180000     -34.76120000     -70.41600000
C      -43.43190000     -35.09430000     -70.14000000
S      -44.73200000     -37.20560000     -73.46260000
S      -42.65960000     -36.20340000     -71.29830000
H      -42.96820000     -34.48920000     -69.35760000
