40
Properties=species:S:1:pos:R:3 #=T CELL(abcABC):=T 1.889726e+02=T 90.00000=T Traj:=T positionsangstrom=T Step:=T 0=T Bead:=T pbc="F F F"
C      -46.84250000     -33.07970000     -72.90220000
C      -47.53520000     -33.96350000     -72.04500000
C      -47.94830000     -33.39140000     -70.81100000
C      -47.61750000     -32.09770000     -70.43040000
C      -47.02630000     -31.27590000     -71.35720000
C      -46.61340000     -31.74720000     -72.58620000
H      -46.53500000     -33.57220000     -73.78550000
H      -48.50160000     -34.05960000     -70.15020000
H      -46.87450000     -30.27720000     -71.00270000
H      -46.05750000     -31.12620000     -73.27050000
C      -47.74610000     -31.48910000     -69.04810000
H      -48.34870000     -32.10450000     -68.40160000
H      -48.33710000     -30.52100000     -68.93070000
C      -47.86650000     -35.47540000     -72.37400000
H      -48.02570000     -35.88060000     -71.31920000
H      -48.80910000     -35.34990000     -72.86780000
S      -46.06040000     -31.07830000     -68.29090000
S      -46.49790000     -36.41500000     -73.28600000
C      -45.29190000     -32.59720000     -67.81230000
H      -44.36700000     -32.28840000     -67.27350000
H      -45.95970000     -33.06480000     -67.12450000
C      -45.40380000     -37.12680000     -72.00770000
H      -44.62110000     -37.73330000     -72.59330000
H      -45.94580000     -37.78610000     -71.40500000
C      -44.72930000     -36.07020000     -71.17610000
H      -45.46880000     -35.61310000     -70.47520000
H      -44.11120000     -36.62680000     -70.47760000
C      -44.88870000     -33.63080000     -68.91740000
H      -45.81430000     -34.12030000     -69.32390000
H      -44.33730000     -34.37260000     -68.27690000
C      -44.04020000     -33.07680000     -70.04180000
C      -43.61760000     -31.76700000     -70.01410000
C      -43.90250000     -33.61550000     -71.38760000
H      -43.43610000     -31.31560000     -69.04760000
C      -43.27190000     -32.77810000     -72.26670000
C      -44.01950000     -34.99700000     -71.86340000
C      -43.56320000     -35.02390000     -73.14490000
S      -42.98400000     -31.21720000     -71.50920000
S      -42.85890000     -33.60150000     -73.74190000
H      -43.71780000     -35.89390000     -73.80800000
