40
Properties=species:S:1:pos:R:3 #=T CELL(abcABC):=T 1.889726e+02=T 90.00000=T Traj:=T positionsangstrom=T Step:=T 0=T Bead:=T pbc="F F F"
C      -43.70810000     -30.37070000     -70.99310000
C      -44.79460000     -30.43990000     -70.14100000
C      -46.09140000     -30.44850000     -70.70070000
C      -46.34870000     -30.48170000     -72.05030000
C      -45.24030000     -30.41450000     -72.90850000
C      -43.95720000     -30.30760000     -72.38940000
H      -42.73090000     -30.53960000     -70.56750000
H      -47.00190000     -30.42810000     -70.05700000
H      -45.44920000     -30.52520000     -73.97200000
H      -43.08330000     -30.28870000     -73.02180000
C      -47.87080000     -30.42500000     -72.37280000
H      -48.02640000     -29.87870000     -73.34090000
H      -48.42420000     -29.96030000     -71.50990000
C      -44.43650000     -30.48810000     -68.66960000
H      -43.71420000     -29.75640000     -68.50950000
H      -45.23570000     -30.32000000     -67.93610000
S      -48.66110000     -32.05650000     -72.55080000
S      -43.70470000     -32.14470000     -68.20270000
C      -47.25320000     -33.22730000     -72.97920000
H      -47.08110000     -33.39730000     -74.04580000
H      -46.28140000     -32.79800000     -72.62770000
C      -45.14830000     -33.37150000     -68.28740000
H      -46.01390000     -33.13400000     -67.64350000
H      -44.72050000     -34.25550000     -67.90190000
C      -45.65840000     -33.71530000     -69.63900000
H      -46.60290000     -34.21900000     -69.40610000
H      -45.93450000     -32.83560000     -70.25310000
C      -47.52550000     -34.57330000     -72.24410000
H      -48.46290000     -34.99310000     -72.61060000
H      -47.64820000     -34.21760000     -71.15640000
C      -46.35640000     -35.49310000     -72.46780000
C      -46.25280000     -36.32900000     -73.57250000
C      -45.23390000     -35.43150000     -71.60420000
H      -47.02530000     -36.51440000     -74.33300000
C      -44.18290000     -36.25080000     -72.03070000
C      -44.80190000     -34.70870000     -70.41050000
C      -43.49000000     -35.01270000     -70.05090000
S      -44.70360000     -37.14060000     -73.50360000
S      -42.75600000     -36.26920000     -71.05880000
H      -43.10460000     -34.65110000     -69.11680000
