40
Properties=species:S:1:pos:R:3 #=T CELL(abcABC):=T 1.889726e+02=T 90.00000=T Traj:=T positionsangstrom=T Step:=T 0=T Bead:=T pbc="F F F"
C      -43.86970000     -29.77110000     -71.49110000
C      -45.00590000     -30.14060000     -70.68650000
C      -46.19650000     -30.35430000     -71.41890000
C      -46.28810000     -30.38240000     -72.79710000
C      -45.15080000     -30.03330000     -73.51590000
C      -43.96020000     -29.64990000     -72.85900000
H      -42.85140000     -29.68050000     -71.11160000
H      -47.09820000     -30.60850000     -70.78240000
H      -45.20280000     -29.98440000     -74.58930000
H      -43.07340000     -29.45380000     -73.42030000
C      -47.55110000     -30.71620000     -73.66590000
H      -47.38880000     -30.69550000     -74.73190000
H      -48.34400000     -29.98810000     -73.39130000
C      -44.93610000     -30.25830000     -69.16880000
H      -44.37520000     -29.36320000     -68.70240000
H      -45.91040000     -30.28360000     -68.51850000
S      -48.31970000     -32.22380000     -72.93440000
S      -44.09160000     -31.87900000     -68.61610000
C      -47.18620000     -33.60360000     -73.40790000
H      -47.28620000     -34.01540000     -74.43780000
H      -46.15440000     -33.10100000     -73.29640000
C      -45.52480000     -33.02270000     -68.19500000
H      -46.29570000     -32.35370000     -67.65920000
H      -45.13110000     -33.77400000     -67.51150000
C      -45.93590000     -33.72030000     -69.47980000
H      -46.93560000     -34.17390000     -69.40430000
H      -46.02440000     -33.02130000     -70.24980000
C      -47.35250000     -34.72620000     -72.43210000
H      -48.19330000     -35.35170000     -72.61090000
H      -47.60770000     -34.35550000     -71.40510000
C      -46.10430000     -35.60960000     -72.22600000
C      -45.69860000     -36.51620000     -73.20170000
C      -45.09790000     -35.49970000     -71.10460000
H      -46.30540000     -36.81560000     -73.99180000
C      -44.04740000     -36.36010000     -71.34650000
C      -44.97110000     -34.83260000     -69.82590000
C      -43.92830000     -35.32980000     -69.04560000
S      -44.22760000     -37.33920000     -72.75610000
S      -42.98190000     -36.55240000     -69.93870000
H      -43.45710000     -34.96890000     -68.17560000
