40
Properties=species:S:1:pos:R:3 #=T CELL(abcABC):=T 1.889726e+02=T 90.00000=T Traj:=T positionsangstrom=T Step:=T 0=T Bead:=T pbc="F F F"
C      -47.10090000     -33.19130000     -73.02610000
C      -47.54970000     -33.94840000     -71.98430000
C      -47.72360000     -33.40070000     -70.72650000
C      -47.31260000     -32.06750000     -70.47730000
C      -46.69160000     -31.39540000     -71.52190000
C      -46.66720000     -31.89280000     -72.78230000
H      -46.86250000     -33.66790000     -74.01810000
H      -48.25350000     -33.98030000     -70.00270000
H      -46.39860000     -30.36680000     -71.30660000
H      -46.53850000     -31.24390000     -73.70120000
C      -47.66070000     -31.41870000     -69.13520000
H      -48.33440000     -32.09390000     -68.55650000
H      -48.25520000     -30.47560000     -69.32270000
C      -47.98740000     -35.40840000     -72.30570000
H      -48.19890000     -35.99380000     -71.44030000
H      -48.96680000     -35.46120000     -72.80810000
S      -46.25980000     -30.97330000     -68.07730000
S      -46.77040000     -36.35520000     -73.45840000
C      -45.24470000     -32.63020000     -67.72550000
H      -44.31040000     -32.36610000     -67.28280000
H      -45.71740000     -33.21910000     -66.87670000
C      -45.62080000     -37.13620000     -72.22780000
H      -44.83160000     -37.52300000     -72.78310000
H      -46.13880000     -37.84120000     -71.57990000
C      -45.12330000     -35.92760000     -71.28880000
H      -46.02050000     -35.62560000     -70.77900000
H      -44.45190000     -36.37200000     -70.53670000
C      -44.99740000     -33.53500000     -68.88930000
H      -45.94860000     -33.87350000     -69.29490000
H      -44.55380000     -34.48570000     -68.47770000
C      -44.13010000     -32.92510000     -70.04050000
C      -43.49180000     -31.70640000     -69.92750000
C      -43.83950000     -33.68770000     -71.22520000
H      -43.67630000     -30.92920000     -69.18810000
C      -42.92360000     -32.95110000     -72.04000000
C      -44.32710000     -34.87020000     -72.00710000
C      -43.75040000     -35.02260000     -73.25050000
S      -42.60850000     -31.34390000     -71.43930000
S      -42.62250000     -33.68310000     -73.63150000
H      -43.66490000     -35.85620000     -73.91670000
