40
Properties=species:S:1:pos:R:3 #=T CELL(abcABC):=T 1.889726e+02=T 90.00000=T Traj:=T positionsangstrom=T Step:=T 0=T Bead:=T pbc="F F F"
C      -43.81170000     -30.45110000     -71.47270000
C      -44.81750000     -30.35110000     -70.47870000
C      -46.20190000     -30.37540000     -70.89520000
C      -46.51720000     -30.19350000     -72.24990000
C      -45.48360000     -30.13710000     -73.21450000
C      -44.16180000     -30.23920000     -72.83390000
H      -42.79710000     -30.42960000     -71.06740000
H      -46.92500000     -30.31990000     -70.10200000
H      -45.77410000     -29.91390000     -74.20190000
H      -43.36440000     -29.99290000     -73.57790000
C      -47.88440000     -30.27060000     -72.82360000
H      -47.98430000     -29.75640000     -73.80060000
H      -48.60980000     -29.92000000     -72.08740000
C      -44.58930000     -30.38950000     -68.99110000
H      -43.90700000     -29.72590000     -68.44790000
H      -45.54380000     -30.22960000     -68.45890000
S      -48.50860000     -32.07160000     -73.06960000
S      -43.87150000     -32.01090000     -68.54780000
C      -47.01050000     -33.13270000     -72.97080000
H      -46.58990000     -33.28580000     -73.94630000
H      -46.21900000     -32.74470000     -72.28330000
C      -45.29980000     -33.09670000     -68.18430000
H      -46.02460000     -32.40890000     -67.78980000
H      -44.86590000     -33.71040000     -67.41870000
C      -45.79250000     -33.76350000     -69.40000000
H      -46.75860000     -34.29890000     -69.27810000
H      -46.00200000     -33.09340000     -70.17040000
C      -47.32090000     -34.57960000     -72.44450000
H      -47.99550000     -35.05900000     -73.20880000
H      -47.89440000     -34.41480000     -71.53160000
C      -46.08190000     -35.45370000     -72.35220000
C      -45.78950000     -36.33410000     -73.35710000
C      -45.12050000     -35.43130000     -71.32900000
H      -46.38800000     -36.48260000     -74.28200000
C      -44.13290000     -36.35250000     -71.57340000
C      -44.86700000     -34.81700000     -70.03030000
C      -43.82000000     -35.41550000     -69.42990000
S      -44.36860000     -37.31160000     -73.05520000
S      -42.92600000     -36.53380000     -70.38490000
H      -43.49740000     -35.25040000     -68.38400000
