40
Properties=species:S:1:pos:R:3 #=T CELL(abcABC):=T 1.889726e+02=T 90.00000=T Traj:=T positionsangstrom=T Step:=T 0=T Bead:=T pbc="F F F"
C      -47.11650000     -32.63750000     -72.43210000
C      -47.74190000     -33.32880000     -71.37300000
C      -47.68240000     -32.75310000     -70.08150000
C      -46.97870000     -31.55210000     -69.94060000
C      -46.42900000     -30.89490000     -71.04330000
C      -46.45120000     -31.41030000     -72.29250000
H      -47.19960000     -33.10680000     -73.43790000
H      -48.17820000     -33.18810000     -69.24800000
H      -46.14740000     -29.81340000     -70.93740000
H      -46.15060000     -30.86980000     -73.18010000
C      -46.66610000     -31.04760000     -68.56410000
H      -47.07930000     -31.65220000     -67.76550000
H      -47.07270000     -30.03060000     -68.55780000
C      -48.45370000     -34.68880000     -71.55900000
H      -48.34610000     -35.23010000     -70.65760000
H      -49.50100000     -34.55440000     -71.68540000
S      -44.82790000     -30.96360000     -68.38850000
S      -47.84690000     -35.79330000     -72.87510000
C      -44.44840000     -32.72820000     -67.98840000
H      -43.65080000     -32.67440000     -67.26810000
H      -45.24940000     -33.02830000     -67.28640000
C      -46.60130000     -36.90550000     -72.05390000
H      -46.24760000     -37.50150000     -72.84980000
H      -47.07020000     -37.55550000     -71.28430000
C      -45.56240000     -36.10510000     -71.29670000
H      -45.99750000     -35.43410000     -70.56510000
H      -44.87750000     -36.71670000     -70.64250000
C      -44.41610000     -33.78630000     -69.08830000
H      -45.37600000     -34.07950000     -69.47940000
H      -43.81410000     -34.61450000     -68.58560000
C      -43.69560000     -33.45220000     -70.35470000
C      -42.77870000     -32.45630000     -70.43120000
C      -43.91070000     -34.09130000     -71.63120000
H      -42.60010000     -31.71660000     -69.66880000
C      -43.27820000     -33.38490000     -72.64420000
C      -44.64550000     -35.25620000     -72.11970000
C      -44.44830000     -35.43070000     -73.46240000
S      -42.36470000     -32.04150000     -72.08850000
S      -43.58370000     -34.11630000     -74.24020000
H      -45.03220000     -36.18390000     -73.91710000
