40
Properties=species:S:1:pos:R:3 #=T CELL(abcABC):=T 1.889726e+02=T 90.00000=T Traj:=T positionsangstrom=T Step:=T 0=T Bead:=T pbc="F F F"
C      -47.43260000     -32.66510000     -72.85990000
C      -47.77870000     -33.44170000     -71.73840000
C      -47.54660000     -32.92780000     -70.47500000
C      -46.83250000     -31.69730000     -70.27810000
C      -46.34410000     -31.00660000     -71.40330000
C      -46.61220000     -31.51300000     -72.68220000
H      -47.57620000     -33.09180000     -73.83610000
H      -47.89360000     -33.40520000     -69.58660000
H      -45.92450000     -30.01550000     -71.34040000
H      -46.33270000     -31.08830000     -73.65920000
C      -46.83510000     -31.12160000     -68.86970000
H      -47.56430000     -31.71640000     -68.35180000
H      -47.25860000     -30.07990000     -68.95920000
C      -48.60150000     -34.66550000     -71.89760000
H      -48.99010000     -35.05860000     -70.90120000
H      -49.55210000     -34.42230000     -72.48200000
S      -45.10070000     -31.01760000     -68.18840000
S      -47.81120000     -36.10920000     -72.89450000
C      -44.45960000     -32.62740000     -67.82240000
H      -43.47370000     -32.56010000     -67.42280000
H      -44.95730000     -33.17860000     -67.03810000
C      -46.62030000     -36.85390000     -71.66640000
H      -46.12970000     -37.58680000     -72.31600000
H      -47.19690000     -37.47330000     -70.91410000
C      -45.66640000     -35.84760000     -71.05890000
H      -46.23170000     -35.15580000     -70.56130000
H      -44.99970000     -36.30530000     -70.33170000
C      -44.37670000     -33.63390000     -68.99040000
H      -45.34980000     -33.97660000     -69.18180000
H      -43.74530000     -34.50140000     -68.60990000
C      -43.72480000     -33.15350000     -70.22150000
C      -42.90010000     -32.10820000     -70.37740000
C      -43.91700000     -33.85580000     -71.49580000
H      -42.55310000     -31.38930000     -69.65330000
C      -43.06370000     -33.39860000     -72.52200000
C      -44.70300000     -35.02830000     -71.93900000
C      -44.45170000     -35.24970000     -73.29800000
S      -42.24330000     -31.92540000     -71.96690000
S      -43.22650000     -34.30520000     -74.01540000
H      -44.84760000     -36.13760000     -73.87480000
