40
Properties=species:S:1:pos:R:3 #=T CELL(abcABC):=T 1.889726e+02=T 90.00000=T Traj:=T positionsangstrom=T Step:=T 0=T Bead:=T pbc="F F F"
C      -47.47030000     -32.44330000     -72.52460000
C      -47.79140000     -33.28700000     -71.45720000
C      -47.42070000     -32.95990000     -70.16100000
C      -46.61380000     -31.80390000     -70.01600000
C      -46.21340000     -30.98730000     -71.06190000
C      -46.64910000     -31.35970000     -72.36780000
H      -47.68640000     -32.78830000     -73.46870000
H      -47.74060000     -33.51890000     -69.28100000
H      -45.73440000     -29.99520000     -70.88200000
H      -46.41020000     -30.71460000     -73.25040000
C      -46.37230000     -31.46150000     -68.54990000
H      -47.00640000     -32.06320000     -67.86040000
H      -46.74790000     -30.52760000     -68.24150000
C      -48.57000000     -34.59360000     -71.74320000
H      -48.76370000     -35.14600000     -70.85070000
H      -49.51410000     -34.30350000     -72.11770000
S      -44.69200000     -31.30490000     -67.84050000
S      -47.94250000     -35.77130000     -72.94180000
C      -43.94240000     -32.98160000     -67.81230000
H      -42.85500000     -32.76320000     -67.68790000
H      -44.41310000     -33.54750000     -66.98550000
C      -46.72050000     -36.71950000     -71.90980000
H      -46.28360000     -37.44800000     -72.61560000
H      -47.26390000     -37.31790000     -71.22000000
C      -45.69710000     -35.85380000     -71.22420000
H      -46.21830000     -35.08330000     -70.55930000
H      -45.04970000     -36.43160000     -70.63260000
C      -44.24460000     -33.81580000     -69.09920000
H      -45.35550000     -34.00900000     -69.22310000
H      -43.93720000     -34.90700000     -69.03650000
C      -43.76550000     -33.22720000     -70.41780000
C      -42.88350000     -32.21000000     -70.58070000
C      -44.13000000     -33.86160000     -71.73200000
H      -42.35430000     -31.71320000     -69.76030000
C      -43.42450000     -33.24190000     -72.77020000
C      -44.83490000     -35.05240000     -72.14330000
C      -44.73500000     -35.23370000     -73.50340000
S      -42.33630000     -31.98720000     -72.22560000
S      -43.62460000     -34.14250000     -74.29400000
H      -45.06090000     -36.13460000     -74.03280000
