40
Properties=species:S:1:pos:R:3 #=T CELL(abcABC):=T 1.889726e+02=T 90.00000=T Traj:=T positionsangstrom=T Step:=T 0=T Bead:=T pbc="F F F"
C      -47.33200000     -32.59180000     -72.53210000
C      -47.83960000     -33.29630000     -71.41910000
C      -47.50660000     -32.83880000     -70.10120000
C      -46.84010000     -31.65850000     -69.97980000
C      -46.44040000     -30.90530000     -71.11510000
C      -46.63450000     -31.39410000     -72.36960000
H      -47.53800000     -32.90530000     -73.55150000
H      -47.64260000     -33.51450000     -69.26390000
H      -45.67030000     -30.11810000     -70.92470000
H      -46.10010000     -30.93210000     -73.20120000
C      -46.55530000     -31.20860000     -68.64680000
H      -47.10410000     -31.87590000     -67.98660000
H      -46.89030000     -30.12490000     -68.57830000
C      -48.59790000     -34.59280000     -71.59650000
H      -48.59990000     -35.19760000     -70.63760000
H      -49.63890000     -34.42340000     -72.05660000
S      -44.73720000     -31.05900000     -68.09450000
S      -47.82040000     -35.72720000     -72.91680000
C      -44.09270000     -32.77320000     -67.85270000
H      -42.98240000     -32.70000000     -67.81720000
H      -44.54230000     -33.24100000     -66.94920000
C      -46.73630000     -36.84610000     -71.95840000
H      -46.37320000     -37.60350000     -72.67580000
H      -47.42780000     -37.33190000     -71.24640000
C      -45.49470000     -36.23570000     -71.29570000
H      -45.86580000     -35.78000000     -70.42070000
H      -44.86620000     -37.10290000     -70.94140000
C      -44.40780000     -33.70900000     -69.06280000
H      -45.48780000     -33.74830000     -69.04380000
H      -44.12790000     -34.66690000     -68.73400000
C      -43.74400000     -33.34530000     -70.38360000
C      -42.94830000     -32.22670000     -70.45320000
C      -43.95330000     -34.06490000     -71.66870000
H      -42.65240000     -31.49130000     -69.72800000
C      -43.19180000     -33.45570000     -72.65040000
C      -44.72960000     -35.19570000     -72.15670000
C      -44.67140000     -35.34200000     -73.52510000
S      -42.36190000     -32.01960000     -72.14160000
S      -43.58060000     -34.16530000     -74.25600000
H      -45.09160000     -36.12520000     -74.20270000
