40
Properties=species:S:1:pos:R:3 #=T CELL(abcABC):=T 1.889726e+02=T 90.00000=T Traj:=T positionsangstrom=T Step:=T 0=T Bead:=T pbc="F F F"
C      -47.23790000     -32.82380000     -72.74000000
C      -47.83600000     -33.40960000     -71.59210000
C      -47.58970000     -32.79140000     -70.31830000
C      -46.74600000     -31.64620000     -70.25360000
C      -46.35990000     -31.02080000     -71.40390000
C      -46.70080000     -31.54810000     -72.64660000
H      -47.55070000     -33.15160000     -73.71900000
H      -48.09890000     -33.32250000     -69.45950000
H      -45.73690000     -30.19030000     -71.29700000
H      -46.44320000     -30.95140000     -73.54430000
C      -46.56050000     -30.96150000     -68.89260000
H      -47.12330000     -31.53510000     -68.16790000
H      -46.87060000     -29.94450000     -68.87070000
C      -48.55240000     -34.76520000     -71.66740000
H      -48.63660000     -35.22260000     -70.74910000
H      -49.51090000     -34.58210000     -72.11020000
S      -44.95490000     -30.88070000     -68.04880000
S      -47.88210000     -35.97850000     -72.84210000
C      -44.46260000     -32.68800000     -67.79560000
H      -43.48630000     -32.59270000     -67.28530000
H      -45.21730000     -33.06740000     -67.07610000
C      -46.52730000     -36.83320000     -71.94760000
H      -46.00070000     -37.49710000     -72.65080000
H      -46.95730000     -37.48690000     -71.17020000
C      -45.53260000     -36.03030000     -71.18080000
H      -46.09450000     -35.34790000     -70.45790000
H      -44.98440000     -36.84370000     -70.59970000
C      -44.62790000     -33.57550000     -69.04860000
H      -45.68160000     -33.79250000     -69.32920000
H      -44.30280000     -34.61560000     -68.77490000
C      -43.86260000     -33.18870000     -70.31380000
C      -42.94520000     -32.14850000     -70.35090000
C      -43.97290000     -33.95830000     -71.54650000
H      -42.66500000     -31.49290000     -69.55440000
C      -43.18140000     -33.39040000     -72.57050000
C      -44.64520000     -35.17270000     -72.04070000
C      -44.40600000     -35.46050000     -73.38560000
S      -42.26610000     -32.04690000     -71.98270000
S      -43.33500000     -34.19850000     -74.15930000
H      -44.84670000     -36.19470000     -74.05080000
