40
Properties=species:S:1:pos:R:3 #=T CELL(abcABC):=T 1.889726e+02=T 90.00000=T Traj:=T positionsangstrom=T Step:=T 0=T Bead:=T pbc="F F F"
C      -47.23240000     -32.74800000     -72.92960000
C      -47.94560000     -33.43680000     -71.91130000
C      -47.75050000     -32.97070000     -70.59590000
C      -47.16980000     -31.73710000     -70.26130000
C      -46.58920000     -31.00260000     -71.32070000
C      -46.56020000     -31.56910000     -72.60380000
H      -47.21350000     -33.03520000     -74.01620000
H      -48.08280000     -33.65110000     -69.82560000
H      -46.05950000     -30.08020000     -71.09370000
H      -46.09580000     -31.05450000     -73.44140000
C      -46.94220000     -31.46950000     -68.78090000
H      -47.28510000     -32.18830000     -68.02270000
H      -47.43800000     -30.54420000     -68.43370000
C      -48.65600000     -34.70540000     -72.28750000
H      -49.18000000     -34.99770000     -71.38340000
H      -49.39640000     -34.55060000     -72.98400000
S      -45.18990000     -31.04530000     -68.30900000
S      -47.63380000     -36.07720000     -73.02900000
C      -44.43290000     -32.67780000     -67.72730000
H      -43.42980000     -32.40780000     -67.34680000
H      -45.16480000     -32.95450000     -66.93250000
C      -46.58430000     -36.76220000     -71.64340000
H      -46.02410000     -37.63050000     -72.11270000
H      -47.29170000     -37.10150000     -70.89320000
C      -45.63650000     -35.71420000     -71.02840000
H      -46.42300000     -35.00380000     -70.69720000
H      -45.34800000     -36.07830000     -69.94120000
C      -44.33210000     -33.64560000     -68.89960000
H      -45.31250000     -34.04310000     -69.21880000
H      -43.78220000     -34.48620000     -68.49050000
C      -43.67300000     -33.17350000     -70.13590000
C      -42.73420000     -32.20680000     -70.21980000
C      -43.91320000     -33.81960000     -71.44570000
H      -42.24000000     -31.57040000     -69.48620000
C      -43.13380000     -33.28980000     -72.44140000
C      -44.60580000     -34.99810000     -71.87220000
C      -44.33220000     -35.33360000     -73.17970000
S      -42.20820000     -31.91640000     -71.91570000
S      -43.21880000     -34.12940000     -73.96050000
H      -44.72310000     -36.23600000     -73.67400000
