40
Properties=species:S:1:pos:R:3 #=T CELL(abcABC):=T 1.889726e+02=T 90.00000=T Traj:=T positionsangstrom=T Step:=T 0=T Bead:=T pbc="F F F"
C      -47.30830000     -32.24000000     -72.24690000
C      -47.83600000     -33.19150000     -71.29660000
C      -47.44290000     -33.14410000     -69.93540000
C      -46.56210000     -32.14980000     -69.55950000
C      -45.93570000     -31.34720000     -70.53760000
C      -46.36450000     -31.32670000     -71.88200000
H      -47.56850000     -32.43990000     -73.32560000
H      -47.88700000     -33.82730000     -69.18080000
H      -45.28260000     -30.50540000     -70.16990000
H      -45.79920000     -30.69750000     -72.59550000
C      -46.17450000     -31.98890000     -68.12970000
H      -46.61560000     -32.80860000     -67.53240000
H      -46.57310000     -31.06530000     -67.73970000
C      -48.88020000     -34.16550000     -71.83800000
H      -49.23110000     -34.74590000     -71.02850000
H      -49.76140000     -33.66080000     -72.30130000
S      -44.43190000     -31.59790000     -67.73210000
S      -48.03920000     -35.21410000     -73.08610000
C      -43.59210000     -33.25890000     -67.99440000
H      -42.50950000     -33.04620000     -67.95730000
H      -43.96350000     -33.89230000     -67.20690000
C      -47.08030000     -36.42500000     -72.04930000
H      -46.79890000     -37.35450000     -72.58940000
H      -47.77880000     -36.85100000     -71.30360000
C      -45.77260000     -35.86220000     -71.33280000
H      -46.00680000     -35.32680000     -70.38760000
H      -45.14070000     -36.80340000     -71.17280000
C      -44.01450000     -34.01280000     -69.21690000
H      -45.13970000     -34.20990000     -69.24430000
H      -43.64210000     -35.02330000     -69.05620000
C      -43.51810000     -33.47740000     -70.52800000
C      -42.60620000     -32.49110000     -70.77330000
C      -44.00410000     -33.98640000     -71.83520000
H      -42.13680000     -31.92520000     -69.99350000
C      -43.43170000     -33.32880000     -72.95010000
C      -44.95120000     -35.00900000     -72.30430000
C      -45.02960000     -35.09180000     -73.67630000
S      -42.52490000     -31.92130000     -72.43270000
S      -43.99560000     -33.89940000     -74.44000000
H      -45.56800000     -35.73430000     -74.32190000
