40
Properties=species:S:1:pos:R:3 #=T CELL(abcABC):=T 1.889726e+02=T 90.00000=T Traj:=T positionsangstrom=T Step:=T 0=T Bead:=T pbc="F F F"
C      -47.33360000     -32.08830000     -72.11880000
C      -47.73120000     -33.11220000     -71.23930000
C      -47.19580000     -33.15680000     -69.95250000
C      -46.44580000     -32.05490000     -69.42760000
C      -46.12020000     -31.03290000     -70.29850000
C      -46.53330000     -31.01400000     -71.60290000
H      -47.61390000     -32.03230000     -73.13740000
H      -47.41310000     -33.91200000     -69.28160000
H      -45.46470000     -30.28730000     -69.90390000
H      -46.30950000     -30.18780000     -72.25640000
C      -46.02330000     -32.06190000     -67.93580000
H      -46.16200000     -32.95450000     -67.35600000
H      -46.57000000     -31.38030000     -67.25790000
C      -48.73720000     -34.15710000     -71.69060000
H      -49.22060000     -34.66650000     -70.89580000
H      -49.47450000     -33.58910000     -72.13980000
S      -44.22480000     -31.78600000     -67.79740000
S      -48.25610000     -35.33130000     -72.99040000
C      -43.56190000     -33.51090000     -67.98440000
H      -42.48500000     -33.36420000     -67.90980000
H      -43.94880000     -34.19600000     -67.16770000
C      -47.06250000     -36.53120000     -72.32960000
H      -46.70190000     -37.04890000     -73.21320000
H      -47.48020000     -37.31830000     -71.72240000
C      -45.82550000     -35.90080000     -71.62630000
H      -46.11320000     -35.55210000     -70.63180000
H      -45.08060000     -36.68750000     -71.42050000
C      -44.08400000     -34.22070000     -69.25110000
H      -45.15820000     -34.19630000     -69.34750000
H      -43.91030000     -35.36110000     -69.22500000
C      -43.65500000     -33.54960000     -70.60700000
C      -42.67360000     -32.62960000     -70.71910000
C      -44.19140000     -33.90010000     -71.94160000
H      -42.09580000     -32.24740000     -69.84420000
C      -43.57520000     -33.12680000     -72.92060000
C      -45.09470000     -34.88590000     -72.46710000
C      -45.13780000     -34.86430000     -73.81490000
S      -42.39600000     -32.00800000     -72.42150000
S      -43.95070000     -33.75070000     -74.54000000
H      -45.73170000     -35.53220000     -74.42440000
