40
Properties=species:S:1:pos:R:3 #=T CELL(abcABC):=T 1.889726e+02=T 90.00000=T Traj:=T positionsangstrom=T Step:=T 0=T Bead:=T pbc="F F F"
C      -47.44640000     -32.27230000     -72.08830000
C      -47.98720000     -32.99120000     -71.00550000
C      -47.49590000     -32.82980000     -69.71950000
C      -46.43080000     -32.01700000     -69.38920000
C      -46.03070000     -31.11220000     -70.43690000
C      -46.51890000     -31.23370000     -71.74440000
H      -47.76280000     -32.32060000     -73.15380000
H      -47.94570000     -33.33750000     -68.92630000
H      -45.29840000     -30.33690000     -70.24540000
H      -46.23420000     -30.52910000     -72.47480000
C      -45.85420000     -31.91000000     -68.00530000
H      -46.38310000     -32.60610000     -67.37570000
H      -46.25710000     -30.96130000     -67.54250000
C      -48.89300000     -34.19010000     -71.24080000
H      -48.91150000     -34.90710000     -70.33010000
H      -49.98460000     -34.07450000     -71.46010000
S      -44.03660000     -31.91490000     -67.91850000
S      -48.22310000     -35.09610000     -72.69950000
C      -43.54560000     -33.70490000     -68.15890000
H      -42.45460000     -33.79170000     -68.16210000
H      -43.92210000     -34.25370000     -67.27000000
C      -47.02030000     -36.47980000     -72.21380000
H      -46.70880000     -37.03250000     -73.12920000
H      -47.58220000     -37.22420000     -71.55960000
C      -45.76630000     -35.91700000     -71.60170000
H      -46.03710000     -35.52330000     -70.61210000
H      -45.00740000     -36.77420000     -71.41120000
C      -44.03680000     -34.34020000     -69.42210000
H      -45.10530000     -34.40410000     -69.34920000
H      -43.56230000     -35.41260000     -69.47490000
C      -43.50090000     -33.68010000     -70.77610000
C      -42.52260000     -32.71680000     -70.78560000
C      -44.07000000     -33.97180000     -72.03900000
H      -41.97850000     -32.33150000     -69.90720000
C      -43.52210000     -33.20130000     -73.04780000
C      -45.09080000     -34.81160000     -72.50380000
C      -45.25800000     -34.77590000     -73.86950000
S      -42.36440000     -32.10160000     -72.44950000
S      -44.19890000     -33.60610000     -74.64480000
H      -45.84230000     -35.43180000     -74.49710000
