40
Properties=species:S:1:pos:R:3 #=T CELL(abcABC):=T 1.889726e+02=T 90.00000=T Traj:=T positionsangstrom=T Step:=T 0=T Bead:=T pbc="F F F"
C      -47.04400000     -31.92230000     -71.87020000
C      -47.77780000     -32.55190000     -70.85190000
C      -47.16680000     -32.63480000     -69.61430000
C      -46.03110000     -31.81400000     -69.29710000
C      -45.42030000     -31.03470000     -70.29510000
C      -46.00560000     -31.05050000     -71.54510000
H      -47.41170000     -31.94940000     -72.86460000
H      -47.60940000     -33.20720000     -68.80180000
H      -44.60170000     -30.43380000     -70.03790000
H      -45.48470000     -30.47580000     -72.29270000
C      -45.47640000     -31.98250000     -67.88510000
H      -45.81190000     -32.90540000     -67.38780000
H      -45.77640000     -31.14060000     -67.29730000
C      -49.07640000     -33.23670000     -71.20800000
H      -49.40070000     -33.82570000     -70.33220000
H      -49.85350000     -32.54360000     -71.48670000
S      -43.63640000     -32.14510000     -67.62770000
S      -48.97950000     -34.39820000     -72.60920000
C      -43.31130000     -33.88220000     -68.24780000
H      -42.17850000     -33.86410000     -68.40610000
H      -43.49120000     -34.52460000     -67.35880000
C      -47.80560000     -35.77160000     -72.24720000
H      -47.57760000     -36.39620000     -73.11570000
H      -48.24360000     -36.52600000     -71.55890000
C      -46.50040000     -35.34530000     -71.61120000
H      -46.67060000     -34.67100000     -70.75220000
H      -46.03360000     -36.29070000     -71.18160000
C      -44.02370000     -34.48020000     -69.52330000
H      -45.13570000     -34.31940000     -69.39160000
H      -43.94690000     -35.59940000     -69.62990000
C      -43.53140000     -34.03180000     -70.86560000
C      -42.31230000     -33.44920000     -71.12020000
C      -44.23740000     -34.28580000     -72.12710000
H      -41.61440000     -33.07550000     -70.38460000
C      -43.46890000     -33.80830000     -73.20830000
C      -45.55760000     -34.70170000     -72.53850000
C      -45.76470000     -34.68350000     -73.88390000
S      -41.98720000     -33.06300000     -72.83120000
S      -44.38140000     -33.81560000     -74.69060000
H      -46.70630000     -34.87180000     -74.41030000
