40
Properties=species:S:1:pos:R:3 #=T CELL(abcABC):=T 1.889726e+02=T 90.00000=T Traj:=T positionsangstrom=T Step:=T 0=T Bead:=T pbc="F F F"
C      -47.14560000     -31.39560000     -71.70130000
C      -47.72610000     -32.20550000     -70.72730000
C      -47.02510000     -32.42870000     -69.56370000
C      -45.79930000     -31.72590000     -69.30770000
C      -45.31710000     -30.82260000     -70.23870000
C      -45.93780000     -30.73980000     -71.51250000
H      -47.57910000     -31.39140000     -72.69130000
H      -47.50730000     -33.16060000     -68.85510000
H      -44.28360000     -30.39430000     -70.08180000
H      -45.47830000     -30.28050000     -72.40790000
C      -45.10540000     -31.83890000     -67.92890000
H      -45.68420000     -32.63420000     -67.42890000
H      -45.12370000     -30.80280000     -67.44240000
C      -48.94380000     -33.05150000     -70.97120000
H      -48.81030000     -33.96100000     -70.30990000
H      -49.92750000     -32.48230000     -70.84440000
S      -43.33540000     -32.33280000     -68.03570000
S      -49.00900000     -33.80930000     -72.66100000
C      -43.58860000     -34.23820000     -68.21960000
H      -42.56450000     -34.66790000     -68.27510000
H      -44.03480000     -34.53420000     -67.33190000
C      -48.20970000     -35.38790000     -72.26810000
H      -48.31290000     -35.98180000     -73.16350000
H      -48.88400000     -35.96350000     -71.56750000
C      -46.77530000     -35.39030000     -71.73940000
H      -46.71070000     -34.69770000     -70.86920000
H      -46.62250000     -36.44450000     -71.36050000
C      -44.35680000     -34.60160000     -69.46770000
H      -45.39180000     -34.19350000     -69.30840000
H      -44.54500000     -35.68830000     -69.44340000
C      -43.70920000     -34.23620000     -70.80450000
C      -42.47730000     -33.60080000     -70.96950000
C      -44.37020000     -34.46810000     -72.05270000
H      -41.73550000     -33.38460000     -70.18150000
C      -43.50680000     -34.11370000     -73.12650000
C      -45.64360000     -34.94400000     -72.64170000
C      -45.72700000     -34.78740000     -73.96130000
S      -42.00800000     -33.27030000     -72.60090000
S      -44.24420000     -34.29010000     -74.75920000
H      -46.53000000     -35.25470000     -74.43600000
