40
Properties=species:S:1:pos:R:3 #=T CELL(abcABC):=T 1.889726e+02=T 90.00000=T Traj:=T positionsangstrom=T Step:=T 0=T Bead:=T pbc="F F F"
C      -47.41720000     -31.87620000     -71.76910000
C      -47.75910000     -32.85220000     -70.86580000
C      -47.13280000     -32.87370000     -69.66970000
C      -46.03590000     -32.04160000     -69.47250000
C      -45.66650000     -31.07240000     -70.41890000
C      -46.49090000     -30.90810000     -71.56020000
H      -48.02350000     -31.78580000     -72.66160000
H      -47.22600000     -33.64440000     -68.90480000
H      -44.83170000     -30.27470000     -70.22870000
H      -46.30110000     -30.16870000     -72.34490000
C      -45.33560000     -32.25960000     -68.15710000
H      -45.75460000     -33.11270000     -67.60490000
H      -45.47690000     -31.40650000     -67.52060000
C      -48.97060000     -33.72880000     -71.11930000
H      -49.17050000     -34.39770000     -70.29560000
H      -49.82600000     -33.14400000     -71.21890000
S      -43.52150000     -32.33880000     -68.16070000
S      -48.83690000     -34.75760000     -72.62480000
C      -43.21510000     -34.10540000     -68.23710000
H      -42.11720000     -34.23460000     -68.01410000
H      -43.71330000     -34.53740000     -67.39340000
C      -47.68900000     -36.15410000     -72.02730000
H      -47.90730000     -36.95110000     -72.79060000
H      -48.16250000     -36.56220000     -71.16170000
C      -46.22540000     -35.78020000     -71.62080000
H      -46.25040000     -35.57990000     -70.54100000
H      -45.73570000     -36.71030000     -71.70830000
C      -43.70310000     -34.72550000     -69.55310000
H      -44.75620000     -34.85130000     -69.59390000
H      -43.37460000     -35.78800000     -69.65760000
C      -43.42400000     -33.95100000     -70.80880000
C      -42.43380000     -32.98960000     -70.90340000
C      -44.12300000     -34.03650000     -72.09410000
H      -41.68130000     -32.68400000     -70.16150000
C      -43.61520000     -33.24190000     -73.07550000
C      -45.34150000     -34.80840000     -72.46260000
C      -45.67930000     -34.51360000     -73.79110000
S      -42.30080000     -32.23410000     -72.51980000
S      -44.44290000     -33.48960000     -74.59770000
H      -46.51940000     -35.01640000     -74.27670000
