40
Properties=species:S:1:pos:R:3 #=T CELL(abcABC):=T 1.889726e+02=T 90.00000=T Traj:=T positionsangstrom=T Step:=T 0=T Bead:=T pbc="F F F"
C      -47.21550000     -31.59810000     -71.73050000
C      -47.87030000     -32.24210000     -70.66720000
C      -47.23900000     -32.25170000     -69.40720000
C      -45.94160000     -31.74210000     -69.25810000
C      -45.36090000     -30.97100000     -70.31400000
C      -46.00650000     -30.94170000     -71.55070000
H      -47.74730000     -31.48890000     -72.68200000
H      -47.77450000     -32.74510000     -68.60370000
H      -44.49730000     -30.32680000     -70.14700000
H      -45.74020000     -30.34530000     -72.42600000
C      -45.23710000     -31.75620000     -67.98230000
H      -45.82170000     -32.14850000     -67.14260000
H      -44.89560000     -30.77250000     -67.66150000
C      -49.11880000     -33.06420000     -71.00210000
H      -49.50700000     -33.45560000     -70.13020000
H      -49.89050000     -32.33550000     -71.22150000
S      -43.48110000     -32.38020000     -68.04570000
S      -48.96380000     -34.02060000     -72.56230000
C      -43.62170000     -34.24710000     -68.24350000
H      -42.59290000     -34.68810000     -68.26270000
H      -44.25570000     -34.67070000     -67.41460000
C      -47.97770000     -35.52850000     -72.19830000
H      -47.85780000     -36.07890000     -73.15250000
H      -48.54310000     -36.07080000     -71.43830000
C      -46.61670000     -35.22790000     -71.53990000
H      -46.85390000     -34.30600000     -70.99210000
H      -46.26750000     -35.97780000     -70.88640000
C      -44.31830000     -34.60140000     -69.53420000
H      -45.34210000     -34.24660000     -69.54310000
H      -44.36900000     -35.71620000     -69.57110000
C      -43.62300000     -34.06630000     -70.86110000
C      -42.35370000     -33.59380000     -70.93270000
C      -44.31190000     -34.21870000     -72.15140000
H      -41.72410000     -33.30670000     -70.12230000
C      -43.45290000     -33.81970000     -73.23050000
C      -45.56140000     -34.82270000     -72.61940000
C      -45.69880000     -34.84310000     -73.94500000
S      -41.88410000     -33.30280000     -72.69370000
S      -44.19110000     -34.22550000     -74.77290000
H      -46.55170000     -35.28150000     -74.43950000
