40
Properties=species:S:1:pos:R:3 #=T CELL(abcABC):=T 1.889726e+02=T 90.00000=T Traj:=T positionsangstrom=T Step:=T 0=T Bead:=T pbc="F F F"
C      -45.34680000     -33.01380000     -67.35760000
C      -44.74150000     -33.97920000     -68.17210000
C      -43.56270000     -33.76410000     -68.79650000
C      -42.96360000     -32.48600000     -68.75370000
C      -43.55040000     -31.47560000     -67.97810000
C      -44.70430000     -31.76550000     -67.22440000
H      -46.26620000     -33.29210000     -66.87320000
H      -43.16830000     -34.57380000     -69.37220000
H      -43.07530000     -30.48370000     -67.94260000
H      -45.13100000     -30.99280000     -66.58600000
C      -41.65360000     -32.23590000     -69.54850000
H      -40.90740000     -32.47640000     -68.82120000
H      -41.69070000     -31.09870000     -69.80580000
C      -45.41090000     -35.29120000     -68.39790000
H      -45.05750000     -35.85230000     -69.23670000
H      -45.37800000     -35.93020000     -67.52770000
S      -41.48410000     -33.34990000     -71.05220000
S      -47.27890000     -35.28510000     -68.70250000
C      -42.96620000     -32.88290000     -72.21710000
H      -43.47600000     -32.07230000     -71.80270000
H      -42.40970000     -32.69140000     -73.21170000
C      -47.50670000     -34.87370000     -70.47550000
H      -48.59550000     -34.92040000     -70.58000000
H      -47.00750000     -35.53820000     -71.18030000
C      -46.98930000     -33.46350000     -70.69030000
H      -47.62290000     -32.79060000     -70.12540000
H      -45.97070000     -33.34440000     -70.45610000
C      -43.86440000     -34.12120000     -72.39740000
H      -44.41620000     -34.22030000     -71.45000000
H      -43.23290000     -35.02610000     -72.60350000
C      -44.81370000     -33.76700000     -73.53110000
C      -44.53890000     -33.87870000     -74.85640000
C      -46.19260000     -33.24610000     -73.21810000
H      -43.65140000     -34.22320000     -75.27410000
C      -46.87830000     -32.97100000     -74.43400000
C      -47.14010000     -33.10370000     -72.13680000
C      -48.38360000     -32.67550000     -72.55140000
S      -45.90960000     -33.25950000     -75.81290000
S      -48.46580000     -32.29890000     -74.20490000
H      -49.20460000     -32.48310000     -71.77560000
