40
Properties=species:S:1:pos:R:3 #=T CELL(abcABC):=T 1.889726e+02=T 90.00000=T Traj:=T positionsangstrom=T Step:=T 0=T Bead:=T pbc="F F F"
C      -47.00330000     -31.30880000     -71.66700000
C      -47.48500000     -32.21510000     -70.71110000
C      -46.81840000     -32.34440000     -69.51170000
C      -45.70640000     -31.55130000     -69.24760000
C      -45.18270000     -30.65840000     -70.20280000
C      -45.83610000     -30.49310000     -71.41570000
H      -47.53800000     -31.16400000     -72.57380000
H      -47.17960000     -33.13950000     -68.86400000
H      -44.35950000     -30.08580000     -69.86250000
H      -45.47320000     -29.81500000     -72.18550000
C      -45.02800000     -31.60500000     -67.88110000
H      -45.65200000     -32.20720000     -67.22120000
H      -45.03610000     -30.67160000     -67.39550000
C      -48.77030000     -32.93650000     -70.99800000
H      -49.03760000     -33.69660000     -70.22590000
H      -49.57770000     -32.24380000     -71.07990000
S      -43.32400000     -32.35620000     -67.97060000
S      -48.91230000     -33.80910000     -72.74110000
C      -43.46240000     -34.18360000     -68.29220000
H      -42.39700000     -34.50170000     -68.30050000
H      -43.84640000     -34.71520000     -67.34890000
C      -48.23480000     -35.51280000     -72.42890000
H      -48.21580000     -36.06660000     -73.36340000
H      -48.92700000     -36.12470000     -71.82350000
C      -46.84940000     -35.61360000     -71.82180000
H      -46.90750000     -35.29810000     -70.82170000
H      -46.64820000     -36.66290000     -71.73040000
C      -44.32460000     -34.80100000     -69.38800000
H      -45.38830000     -34.64940000     -69.18750000
H      -44.17170000     -35.88670000     -69.40120000
C      -43.89960000     -34.26380000     -70.78950000
C      -42.60430000     -33.74330000     -70.89330000
C      -44.49100000     -34.40030000     -72.11650000
H      -41.82380000     -33.78280000     -70.16650000
C      -43.71140000     -34.00900000     -73.18210000
C      -45.72810000     -35.02050000     -72.65260000
C      -45.80050000     -35.05080000     -74.00010000
S      -42.16910000     -33.37940000     -72.61750000
S      -44.37930000     -34.25460000     -74.72270000
H      -46.66020000     -35.29110000     -74.63110000
