40
Properties=species:S:1:pos:R:3 #=T CELL(abcABC):=T 1.889726e+02=T 90.00000=T Traj:=T positionsangstrom=T Step:=T 0=T Bead:=T pbc="F F F"
C      -46.73330000     -31.25670000     -71.91860000
C      -47.49660000     -31.94490000     -70.92080000
C      -46.94290000     -32.06930000     -69.64040000
C      -45.62890000     -31.55370000     -69.36200000
C      -44.94900000     -30.81040000     -70.32700000
C      -45.43800000     -30.74750000     -71.59840000
H      -47.14080000     -31.22120000     -72.93400000
H      -47.42210000     -32.71200000     -68.87690000
H      -44.05590000     -30.27630000     -70.01220000
H      -44.93680000     -30.24950000     -72.47490000
C      -45.03840000     -31.75130000     -67.99510000
H      -45.71640000     -32.41460000     -67.36610000
H      -45.07560000     -30.77480000     -67.49280000
C      -48.80640000     -32.65340000     -71.15450000
H      -49.18940000     -33.20980000     -70.27430000
H      -49.65450000     -31.98860000     -71.34710000
S      -43.25310000     -32.50800000     -67.94470000
S      -48.67960000     -33.69650000     -72.63880000
C      -43.66300000     -34.33170000     -68.13870000
H      -42.64020000     -34.77900000     -68.04240000
H      -44.23500000     -34.70770000     -67.30960000
C      -48.35640000     -35.36230000     -72.07020000
H      -48.90180000     -36.07280000     -72.76980000
H      -48.97200000     -35.58210000     -71.14270000
C      -46.83080000     -35.84800000     -71.76170000
H      -46.60290000     -35.72970000     -70.69850000
H      -46.87490000     -36.93390000     -71.96910000
C      -44.36130000     -34.74750000     -69.38880000
H      -45.37660000     -34.24580000     -69.38220000
H      -44.55590000     -35.85180000     -69.28000000
C      -43.86280000     -34.34380000     -70.73300000
C      -42.61020000     -33.70750000     -70.96490000
C      -44.56480000     -34.56340000     -72.04660000
H      -41.84000000     -33.56830000     -70.21910000
C      -43.93750000     -33.84820000     -73.09350000
C      -45.76230000     -35.17070000     -72.54990000
C      -45.84500000     -35.22140000     -73.92000000
S      -42.37760000     -33.21220000     -72.64230000
S      -44.48500000     -34.30110000     -74.68410000
H      -46.60780000     -35.64850000     -74.52830000
