40
Properties=species:S:1:pos:R:3 #=T CELL(abcABC):=T 1.889726e+02=T 90.00000=T Traj:=T positionsangstrom=T Step:=T 0=T Bead:=T pbc="F F F"
C      -48.92860000     -30.62610000     -72.59690000
C      -47.90120000     -30.84640000     -71.70020000
C      -46.57860000     -30.89300000     -72.13660000
C      -46.23730000     -30.56870000     -73.43390000
C      -47.23860000     -30.21640000     -74.36160000
C      -48.57720000     -30.26820000     -73.93270000
H      -49.98980000     -30.60800000     -72.34820000
H      -45.83850000     -31.07710000     -71.41850000
H      -47.03840000     -30.13470000     -75.41820000
H      -49.37330000     -30.04150000     -74.69710000
C      -44.77110000     -30.50200000     -73.87200000
H      -44.42530000     -29.57580000     -73.45390000
H      -44.63170000     -30.42100000     -74.97690000
C      -48.11170000     -30.98930000     -70.26530000
H      -47.20820000     -30.71200000     -69.84460000
H      -48.90490000     -30.20990000     -69.95360000
S      -43.59710000     -31.82560000     -73.32360000
S      -48.69220000     -32.63010000     -69.55180000
C      -44.44700000     -33.33550000     -73.81300000
H      -45.31470000     -33.28530000     -74.52660000
H      -43.75130000     -33.99920000     -74.43480000
C      -47.29480000     -33.79480000     -70.01840000
H      -47.14660000     -33.79120000     -71.10030000
H      -47.57000000     -34.75680000     -69.64890000
C      -45.95470000     -33.58590000     -69.30330000
H      -45.50100000     -32.63500000     -69.57330000
H      -46.16480000     -33.52780000     -68.19740000
C      -44.97480000     -34.23420000     -72.64110000
H      -45.53770000     -35.10490000     -73.12320000
H      -45.65380000     -33.69960000     -72.00000000
C      -43.86890000     -34.88170000     -71.77110000
C      -42.76320000     -35.40700000     -72.33420000
C      -44.05790000     -35.19350000     -70.38420000
H      -42.37690000     -35.31440000     -73.34290000
C      -42.99750000     -36.02640000     -69.95600000
C      -44.94100000     -34.78040000     -69.28840000
C      -44.62670000     -35.49730000     -68.12080000
S      -41.88700000     -36.46640000     -71.22000000
S      -43.26990000     -36.57720000     -68.27500000
H      -45.26290000     -35.49960000     -67.17950000
