40
Properties=species:S:1:pos:R:3 #=T CELL(abcABC):=T 1.889726e+02=T 90.00000=T Traj:=T positionsangstrom=T Step:=T 0=T Bead:=T pbc="F F F"
C      -46.80230000     -31.15510000     -71.78700000
C      -47.49530000     -31.92670000     -70.85520000
C      -46.85650000     -32.08610000     -69.55890000
C      -45.69630000     -31.41210000     -69.22930000
C      -45.03640000     -30.63410000     -70.12160000
C      -45.57700000     -30.52790000     -71.38620000
H      -47.18660000     -30.99630000     -72.85210000
H      -47.34410000     -32.70750000     -68.83990000
H      -43.98020000     -30.36780000     -69.86990000
H      -44.99920000     -29.94170000     -72.11070000
C      -45.00570000     -31.59620000     -67.92770000
H      -45.61530000     -31.98020000     -67.14460000
H      -44.71850000     -30.56510000     -67.68590000
C      -48.75480000     -32.72790000     -71.15060000
H      -48.82870000     -33.42730000     -70.34910000
H      -49.60020000     -32.11540000     -71.39250000
S      -43.47250000     -32.53870000     -68.04200000
S      -48.52340000     -33.86610000     -72.62940000
C      -43.73330000     -34.37400000     -68.23530000
H      -42.67410000     -34.68840000     -68.24590000
H      -44.23000000     -34.83100000     -67.34210000
C      -48.21160000     -35.55470000     -72.06280000
H      -48.40280000     -36.14410000     -72.96060000
H      -48.84990000     -35.93830000     -71.23340000
C      -46.73180000     -35.72880000     -71.59100000
H      -46.68360000     -35.22750000     -70.62410000
H      -46.53560000     -36.77640000     -71.50070000
C      -44.43020000     -34.82770000     -69.52610000
H      -45.46780000     -34.41500000     -69.37500000
H      -44.66920000     -35.86750000     -69.58980000
C      -43.88130000     -34.33820000     -70.85170000
C      -42.57930000     -33.76610000     -70.98690000
C      -44.48670000     -34.56510000     -72.18130000
H      -42.07610000     -33.31460000     -70.15550000
C      -43.79950000     -33.95140000     -73.21720000
C      -45.72600000     -35.13490000     -72.57450000
C      -45.91170000     -35.05160000     -73.92480000
S      -42.26300000     -33.33430000     -72.66880000
S      -44.62110000     -34.22720000     -74.73340000
H      -46.57700000     -35.59440000     -74.59850000
