40
Properties=species:S:1:pos:R:3 #=T CELL(abcABC):=T 1.889726e+02=T 90.00000=T Traj:=T positionsangstrom=T Step:=T 0=T Bead:=T pbc="F F F"
C      -48.86580000     -31.09190000     -72.40300000
C      -47.72660000     -31.06750000     -71.51990000
C      -46.46200000     -30.84290000     -72.06440000
C      -46.25310000     -30.62500000     -73.44550000
C      -47.38640000     -30.53010000     -74.23720000
C      -48.68840000     -30.78400000     -73.74360000
H      -49.87420000     -31.10650000     -71.94450000
H      -45.63650000     -31.03800000     -71.32550000
H      -47.19490000     -30.21660000     -75.29640000
H      -49.49440000     -30.74380000     -74.46540000
C      -44.90430000     -30.40730000     -74.03280000
H      -44.51460000     -29.34600000     -73.89740000
H      -45.08690000     -30.59280000     -75.07300000
C      -47.95920000     -31.36010000     -70.01350000
H      -47.00240000     -31.21550000     -69.48080000
H      -48.63040000     -30.60140000     -69.66790000
S      -43.59240000     -31.52070000     -73.40240000
S      -48.77470000     -32.98700000     -69.69100000
C      -44.14780000     -33.21630000     -73.91840000
H      -44.86900000     -33.12550000     -74.79350000
H      -43.24680000     -33.76700000     -74.33290000
C      -47.49270000     -34.19990000     -69.89150000
H      -47.44250000     -34.76500000     -70.89320000
H      -47.78480000     -35.09650000     -69.24510000
C      -46.08180000     -33.61590000     -69.46870000
H      -45.86270000     -32.94300000     -70.29350000
H      -46.19470000     -32.96200000     -68.57480000
C      -44.77730000     -33.91660000     -72.72800000
H      -45.56040000     -34.59180000     -72.91300000
H      -45.19210000     -33.06030000     -72.10140000
C      -43.85200000     -34.71270000     -71.88070000
C      -42.74630000     -35.38030000     -72.34930000
C      -44.07070000     -35.02870000     -70.48020000
H      -42.36510000     -35.50710000     -73.38810000
C      -43.10730000     -35.89170000     -69.98170000
C      -44.94790000     -34.56790000     -69.37290000
C      -44.65570000     -35.30150000     -68.17990000
S      -41.91340000     -36.32320000     -71.08980000
S      -43.24570000     -36.29020000     -68.28060000
H      -44.92650000     -35.09990000     -67.18280000
