40
Properties=species:S:1:pos:R:3 #=T CELL(abcABC):=T 1.889726e+02=T 90.00000=T Traj:=T positionsangstrom=T Step:=T 0=T Bead:=T pbc="F F F"
C      -48.89960000     -30.60270000     -72.45170000
C      -47.85220000     -31.02090000     -71.63710000
C      -46.55140000     -30.99890000     -72.12610000
C      -46.26440000     -30.71250000     -73.48250000
C      -47.33840000     -30.41310000     -74.32780000
C      -48.65490000     -30.35390000     -73.85930000
H      -49.95440000     -30.57650000     -72.00790000
H      -45.68410000     -31.20380000     -71.45230000
H      -47.16450000     -29.99890000     -75.38310000
H      -49.49650000     -30.14180000     -74.48550000
C      -44.83370000     -30.45780000     -73.96680000
H      -44.61360000     -29.49440000     -73.54040000
H      -44.67350000     -30.27900000     -75.07550000
C      -48.17090000     -31.20130000     -70.14370000
H      -47.42240000     -30.89710000     -69.40900000
H      -48.99450000     -30.54670000     -69.77680000
S      -43.50920000     -31.63500000     -73.44360000
S      -48.69830000     -32.85830000     -69.51000000
C      -44.27720000     -33.29750000     -73.82200000
H      -45.01480000     -33.09550000     -74.55770000
H      -43.49100000     -33.82050000     -74.21920000
C      -47.36920000     -34.14520000     -70.00500000
H      -47.38450000     -34.18690000     -71.05740000
H      -47.84290000     -35.03560000     -69.60250000
C      -46.06370000     -33.68280000     -69.41680000
H      -45.68900000     -32.81400000     -69.98570000
H      -46.27280000     -33.28430000     -68.42440000
C      -44.87260000     -34.11790000     -72.65030000
H      -45.56610000     -34.82420000     -73.12030000
H      -45.56290000     -33.53970000     -71.99480000
C      -43.87500000     -34.83480000     -71.82400000
C      -42.78430000     -35.42610000     -72.35950000
C      -44.01760000     -35.12210000     -70.44570000
H      -42.34540000     -35.31570000     -73.34100000
C      -43.06520000     -36.02160000     -69.96360000
C      -44.98250000     -34.69240000     -69.34730000
C      -44.76720000     -35.37440000     -68.14850000
S      -41.83250000     -36.32090000     -71.18450000
S      -43.24420000     -36.37830000     -68.23380000
H      -45.26690000     -35.21480000     -67.19220000
