40
Properties=species:S:1:pos:R:3 #=T CELL(abcABC):=T 1.889726e+02=T 90.00000=T Traj:=T positionsangstrom=T Step:=T 0=T Bead:=T pbc="F F F"
C      -48.96150000     -31.61330000     -72.62530000
C      -48.13530000     -31.18820000     -71.57920000
C      -46.89270000     -30.67340000     -71.97470000
C      -46.40510000     -30.63500000     -73.32670000
C      -47.20760000     -31.14570000     -74.35160000
C      -48.49680000     -31.57190000     -73.96110000
H      -49.91620000     -32.07600000     -72.52170000
H      -46.21970000     -30.43360000     -71.21930000
H      -46.83800000     -31.02350000     -75.33680000
H      -49.19260000     -31.75080000     -74.75160000
C      -44.96560000     -30.14490000     -73.58660000
H      -44.77780000     -29.21230000     -73.03490000
H      -44.76680000     -29.74180000     -74.67340000
C      -48.48320000     -31.27370000     -70.17200000
H      -47.81170000     -30.77210000     -69.52020000
H      -49.44340000     -30.86170000     -69.89190000
S      -43.60050000     -31.26630000     -73.03600000
S      -48.67210000     -33.08620000     -69.54070000
C      -44.15260000     -32.86420000     -73.73380000
H      -44.94980000     -32.68830000     -74.51010000
H      -43.27930000     -33.41400000     -74.26430000
C      -47.28380000     -34.11230000     -70.08150000
H      -47.20780000     -34.15400000     -71.22750000
H      -47.69720000     -35.08430000     -69.73500000
C      -45.99990000     -33.56120000     -69.48010000
H      -45.93350000     -32.61180000     -70.12420000
H      -46.20130000     -33.15660000     -68.45910000
C      -44.72460000     -33.77570000     -72.64920000
H      -45.46980000     -34.40450000     -73.18580000
H      -45.34830000     -33.35910000     -71.92310000
C      -43.76040000     -34.69370000     -71.94830000
C      -42.64390000     -35.28820000     -72.46260000
C      -43.94540000     -35.01700000     -70.51940000
H      -42.29970000     -35.09220000     -73.43920000
C      -43.01810000     -35.92980000     -70.07780000
C      -44.79470000     -34.48180000     -69.48580000
C      -44.45210000     -35.02600000     -68.21730000
S      -41.94930000     -36.40720000     -71.35510000
S      -43.18200000     -36.22470000     -68.32840000
H      -45.05980000     -34.85820000     -67.31960000
