40
Properties=species:S:1:pos:R:3 #=T CELL(abcABC):=T 1.889726e+02=T 90.00000=T Traj:=T positionsangstrom=T Step:=T 0=T Bead:=T pbc="F F F"
C      -48.73560000     -30.59050000     -72.63500000
C      -47.66200000     -30.74030000     -71.67460000
C      -46.32790000     -30.74030000     -72.07250000
C      -46.06920000     -30.53740000     -73.43270000
C      -47.11520000     -30.42370000     -74.34990000
C      -48.48160000     -30.41630000     -73.99550000
H      -49.73450000     -30.57860000     -72.33040000
H      -45.54910000     -30.82720000     -71.33970000
H      -46.92900000     -30.23080000     -75.35650000
H      -49.23730000     -30.11150000     -74.72230000
C      -44.65580000     -30.53320000     -73.99050000
H      -44.02260000     -29.62700000     -73.69140000
H      -44.72900000     -30.56940000     -75.05500000
C      -47.96270000     -30.84040000     -70.19810000
H      -47.03090000     -30.50050000     -69.65860000
H      -48.89860000     -30.35290000     -69.95920000
S      -43.69170000     -31.89240000     -73.23760000
S      -48.57760000     -32.52760000     -69.69990000
C      -44.62220000     -33.38400000     -73.82280000
H      -45.44890000     -33.02620000     -74.38390000
H      -43.92660000     -33.89480000     -74.47490000
C      -47.28640000     -33.75390000     -70.02990000
H      -47.02660000     -33.55600000     -71.10670000
H      -47.73820000     -34.74610000     -70.09220000
C      -46.02930000     -33.57820000     -69.24400000
H      -45.54710000     -32.68590000     -69.65010000
H      -46.22100000     -33.37940000     -68.21090000
C      -45.09290000     -34.08270000     -72.52550000
H      -45.95850000     -34.67260000     -72.78280000
H      -45.49250000     -33.29830000     -71.92360000
C      -43.99680000     -34.93660000     -71.78240000
C      -42.97920000     -35.60520000     -72.37540000
C      -44.13240000     -35.14260000     -70.37450000
H      -42.63760000     -35.61690000     -73.40630000
C      -43.17240000     -36.06250000     -69.97020000
C      -45.00430000     -34.78130000     -69.29100000
C      -44.63290000     -35.44270000     -68.12910000
S      -42.04070000     -36.58910000     -71.14510000
S      -43.26960000     -36.55880000     -68.30040000
H      -45.03770000     -35.19150000     -67.12190000
