40
Properties=species:S:1:pos:R:3 #=T CELL(abcABC):=T 1.889726e+02=T 90.00000=T Traj:=T positionsangstrom=T Step:=T 0=T Bead:=T pbc="F F F"
C      -45.98310000     -30.99410000     -72.02550000
C      -46.84230000     -31.68430000     -71.09040000
C      -46.35380000     -32.06030000     -69.85780000
C      -44.92650000     -31.83330000     -69.51410000
C      -44.08670000     -31.30500000     -70.46110000
C      -44.59130000     -30.88490000     -71.69250000
H      -46.40700000     -30.57470000     -72.97200000
H      -47.05530000     -32.32080000     -69.09870000
H      -43.04250000     -31.19160000     -70.28840000
H      -43.96070000     -30.45210000     -72.44010000
C      -44.55310000     -32.04740000     -68.09360000
H      -45.40620000     -32.46210000     -67.55520000
H      -44.11930000     -31.17300000     -67.65430000
C      -48.33140000     -31.80750000     -71.35560000
H      -48.92130000     -32.13980000     -70.50120000
H      -48.79300000     -30.76570000     -71.53240000
S      -43.28910000     -33.40280000     -67.79060000
S      -48.82840000     -32.72740000     -72.93460000
C      -44.06950000     -35.00820000     -68.12910000
H      -43.25680000     -35.69630000     -68.13710000
H      -44.66850000     -35.29080000     -67.25840000
C      -48.86880000     -34.51360000     -72.37030000
H      -49.14170000     -35.05910000     -73.36290000
H      -49.72160000     -34.57150000     -71.58760000
C      -47.54240000     -35.02880000     -71.69250000
H      -47.46350000     -34.77270000     -70.68450000
H      -47.68920000     -36.16540000     -71.80400000
C      -44.91150000     -35.16800000     -69.34500000
H      -45.86150000     -34.56550000     -69.12580000
H      -45.20550000     -36.32820000     -69.42540000
C      -44.26590000     -34.79650000     -70.69700000
C      -42.85000000     -34.54240000     -70.78410000
C      -44.92550000     -34.55800000     -71.94370000
H      -42.20060000     -34.66820000     -69.92370000
C      -44.01400000     -34.21640000     -72.94380000
C      -46.23640000     -34.61730000     -72.42480000
C      -46.31600000     -34.35250000     -73.75860000
S      -42.32630000     -34.01790000     -72.45310000
S      -44.77720000     -33.86650000     -74.45810000
H      -47.15720000     -34.44710000     -74.37310000
