40
Properties=species:S:1:pos:R:3 #=T CELL(abcABC):=T 1.889726e+02=T 90.00000=T Traj:=T positionsangstrom=T Step:=T 0=T Bead:=T pbc="F F F"
C      -46.51150000     -31.00020000     -71.76310000
C      -47.29850000     -31.64140000     -70.79920000
C      -46.79200000     -31.90180000     -69.53330000
C      -45.43160000     -31.66680000     -69.21300000
C      -44.61150000     -31.08300000     -70.21390000
C      -45.11980000     -30.75470000     -71.45710000
H      -46.87290000     -30.84210000     -72.79440000
H      -47.55580000     -32.04590000     -68.73870000
H      -43.57340000     -30.82030000     -70.04700000
H      -44.46630000     -30.18330000     -72.11170000
C      -44.85300000     -31.79910000     -67.89760000
H      -45.58280000     -32.09610000     -67.07880000
H      -44.46170000     -30.85200000     -67.51030000
C      -48.73150000     -32.03940000     -71.10950000
H      -49.14490000     -32.68700000     -70.36160000
H      -49.31120000     -31.12620000     -71.24010000
S      -43.47060000     -33.08190000     -67.79090000
S      -49.05310000     -32.90480000     -72.65900000
C      -44.08420000     -34.78020000     -68.18420000
H      -43.22580000     -35.54950000     -68.03000000
H      -44.80070000     -35.09020000     -67.42180000
C      -48.52570000     -34.68020000     -72.28890000
H      -48.88810000     -35.21530000     -73.16910000
H      -49.20120000     -34.93280000     -71.50610000
C      -47.12810000     -34.85640000     -71.78160000
H      -47.14670000     -34.32640000     -70.89640000
H      -46.98840000     -35.92710000     -71.61340000
C      -44.77540000     -34.91370000     -69.58790000
H      -45.62080000     -34.30050000     -69.59550000
H      -45.09880000     -35.99770000     -69.64970000
C      -43.94620000     -34.66270000     -70.91040000
C      -42.56920000     -34.79430000     -70.95570000
C      -44.57900000     -34.54000000     -72.19090000
H      -41.92680000     -34.88910000     -70.10350000
C      -43.64200000     -34.41760000     -73.18970000
C      -45.94190000     -34.46040000     -72.73490000
C      -45.93480000     -34.26320000     -74.06550000
S      -42.01220000     -34.55590000     -72.61800000
S      -44.36190000     -33.95830000     -74.71980000
H      -46.86350000     -34.15140000     -74.65890000
