40
Properties=species:S:1:pos:R:3 #=T CELL(abcABC):=T 1.889726e+02=T 90.00000=T Traj:=T positionsangstrom=T Step:=T 0=T Bead:=T pbc="F F F"
C      -45.92350000     -30.89200000     -71.87970000
C      -46.88630000     -31.41810000     -71.06700000
C      -46.45050000     -31.87660000     -69.71300000
C      -45.13010000     -31.76380000     -69.36790000
C      -44.16510000     -31.23870000     -70.28240000
C      -44.59760000     -30.76270000     -71.46300000
H      -46.13930000     -30.63320000     -72.92740000
H      -47.30230000     -32.22560000     -68.99510000
H      -43.21370000     -31.10310000     -69.87880000
H      -43.96210000     -30.43030000     -72.28290000
C      -44.69020000     -32.14410000     -67.95350000
H      -45.48150000     -32.51600000     -67.33170000
H      -44.35660000     -31.23600000     -67.42030000
C      -48.36630000     -31.44460000     -71.33500000
H      -48.96040000     -31.86180000     -70.49700000
H      -48.82730000     -30.49900000     -71.66700000
S      -43.21360000     -33.33880000     -67.97470000
S      -48.77070000     -32.64190000     -72.67370000
C      -44.01290000     -35.00250000     -68.26680000
H      -43.20470000     -35.75660000     -68.40120000
H      -44.52110000     -35.27370000     -67.38290000
C      -48.81720000     -34.33540000     -71.97660000
H      -49.27000000     -34.99110000     -72.75620000
H      -49.58580000     -34.29400000     -71.13450000
C      -47.42530000     -34.95390000     -71.58940000
H      -47.24990000     -34.73150000     -70.44550000
H      -47.45250000     -36.02060000     -71.49950000
C      -44.92590000     -35.09540000     -69.53050000
H      -45.59290000     -34.18980000     -69.50070000
H      -45.48670000     -36.05810000     -69.51520000
C      -44.15610000     -34.80380000     -70.81440000
C      -42.79750000     -34.66990000     -71.03990000
C      -44.88320000     -34.59740000     -72.03290000
H      -42.06020000     -34.82180000     -70.18280000
C      -44.03290000     -34.32090000     -73.09030000
C      -46.27590000     -34.64810000     -72.46830000
C      -46.33600000     -34.52740000     -73.78430000
S      -42.35580000     -34.19780000     -72.61530000
S      -44.81060000     -34.22620000     -74.61580000
H      -47.20810000     -34.59270000     -74.42380000
