40
Properties=species:S:1:pos:R:3 #=T CELL(abcABC):=T 1.889726e+02=T 90.00000=T Traj:=T positionsangstrom=T Step:=T 0=T Bead:=T pbc="F F F"
C      -46.91700000     -30.79150000     -71.60140000
C      -47.68550000     -31.57270000     -70.72460000
C      -47.09310000     -32.05170000     -69.52830000
C      -45.77500000     -31.67500000     -69.27830000
C      -44.95840000     -30.99940000     -70.19270000
C      -45.60720000     -30.52130000     -71.36670000
H      -47.43180000     -30.51070000     -72.54630000
H      -47.65570000     -32.57250000     -68.76580000
H      -43.91510000     -30.78710000     -69.91160000
H      -44.96190000     -30.11470000     -72.14170000
C      -45.10870000     -32.13960000     -68.00570000
H      -45.62290000     -33.00900000     -67.63010000
H      -45.06220000     -31.27410000     -67.26630000
C      -49.02490000     -32.09080000     -71.21220000
H      -49.55390000     -32.67180000     -70.36020000
H      -49.62660000     -31.21900000     -71.46260000
S      -43.35720000     -32.66190000     -68.18440000
S      -49.05290000     -32.99970000     -72.84220000
C      -43.45730000     -34.47220000     -68.25830000
H      -42.43990000     -34.78240000     -68.32850000
H      -43.93720000     -34.90870000     -67.28220000
C      -48.49390000     -34.68400000     -72.32390000
H      -48.36270000     -35.30810000     -73.26340000
H      -49.15510000     -35.01500000     -71.52260000
C      -47.07390000     -34.75030000     -71.66060000
H      -46.95190000     -34.09730000     -70.77980000
H      -46.96250000     -35.77920000     -71.33140000
C      -44.26870000     -35.09050000     -69.36440000
H      -45.39620000     -34.70750000     -69.49760000
H      -44.40990000     -36.17920000     -69.18880000
C      -43.71400000     -34.87220000     -70.71490000
C      -42.36890000     -34.91480000     -70.93130000
C      -44.43450000     -34.56450000     -72.01370000
H      -41.53070000     -35.16030000     -70.25750000
C      -43.55460000     -34.38940000     -73.07240000
C      -45.83600000     -34.45910000     -72.51390000
C      -45.91330000     -34.08060000     -73.82300000
S      -41.91300000     -34.70270000     -72.62530000
S      -44.30040000     -34.14880000     -74.64140000
H      -46.84340000     -34.16520000     -74.27980000
