40
Properties=species:S:1:pos:R:3 #=T CELL(abcABC):=T 1.889726e+02=T 90.00000=T Traj:=T positionsangstrom=T Step:=T 0=T Bead:=T pbc="F F F"
C      -45.43150000     -33.01790000     -67.08930000
C      -44.90050000     -34.10450000     -67.84950000
C      -43.73570000     -33.89140000     -68.55460000
C      -43.19010000     -32.61380000     -68.65420000
C      -43.76060000     -31.55450000     -67.90700000
C      -44.81300000     -31.80600000     -67.02550000
H      -46.28870000     -33.30100000     -66.56360000
H      -43.40510000     -34.57220000     -69.24260000
H      -43.28390000     -30.57210000     -67.93180000
H      -45.35320000     -30.99360000     -66.55350000
C      -41.92880000     -32.22230000     -69.45540000
H      -41.07070000     -32.54810000     -68.82900000
H      -41.94440000     -31.19300000     -69.61390000
C      -45.59240000     -35.44660000     -68.03360000
H      -44.96870000     -36.10410000     -68.63050000
H      -45.83820000     -35.94580000     -67.08400000
S      -41.70390000     -33.29240000     -70.96330000
S      -47.25550000     -35.40240000     -68.93490000
C      -43.17710000     -32.97480000     -71.94840000
H      -43.94740000     -32.44470000     -71.33480000
H      -42.83470000     -32.41330000     -72.77750000
C      -47.02810000     -34.70270000     -70.58100000
H      -47.97250000     -35.08550000     -71.04130000
H      -46.15410000     -35.21690000     -71.04570000
C      -46.74550000     -33.17650000     -70.69810000
H      -47.41540000     -32.54320000     -70.12390000
H      -45.73600000     -32.96360000     -70.44430000
C      -43.81080000     -34.22520000     -72.53940000
H      -44.40070000     -34.72310000     -71.79870000
H      -43.04310000     -34.93210000     -72.89980000
C      -44.84070000     -33.90400000     -73.59750000
C      -44.60580000     -34.12250000     -74.90580000
C      -46.15070000     -33.27660000     -73.39470000
H      -43.68780000     -34.45250000     -75.35390000
C      -46.79890000     -33.00340000     -74.56610000
C      -46.96510000     -32.83890000     -72.22400000
C      -47.99610000     -32.06310000     -72.59690000
S      -45.92690000     -33.58600000     -76.01290000
S      -48.15990000     -31.94800000     -74.32490000
H      -48.70670000     -31.47170000     -71.90590000
