40
Properties=species:S:1:pos:R:3 #=T CELL(abcABC):=T 1.889726e+02=T 90.00000=T Traj:=T positionsangstrom=T Step:=T 0=T Bead:=T pbc="F F F"
C      -46.41010000     -31.21930000     -72.16390000
C      -47.21560000     -31.73480000     -71.16460000
C      -46.63340000     -31.80870000     -69.83350000
C      -45.32570000     -31.41820000     -69.54850000
C      -44.48420000     -31.04990000     -70.63550000
C      -45.05880000     -31.01890000     -71.88670000
H      -46.67520000     -31.09990000     -73.17360000
H      -47.18920000     -32.28450000     -68.99660000
H      -43.42800000     -30.79930000     -70.61890000
H      -44.39520000     -30.64340000     -72.65050000
C      -44.75970000     -31.49020000     -68.09250000
H      -45.57330000     -31.65290000     -67.32530000
H      -44.24150000     -30.56230000     -67.95450000
C      -48.65720000     -32.19750000     -71.35620000
H      -49.11140000     -32.65920000     -70.48730000
H      -49.25600000     -31.38190000     -71.61400000
S      -43.38700000     -32.60630000     -67.61610000
S      -48.79900000     -33.24090000     -72.83860000
C      -43.99010000     -34.35840000     -68.06610000
H      -43.14830000     -34.89720000     -68.15350000
H      -44.61440000     -34.83710000     -67.26930000
C      -48.63660000     -34.93740000     -72.17100000
H      -48.76720000     -35.58470000     -73.07410000
H      -49.35770000     -35.29970000     -71.45750000
C      -47.19450000     -35.23480000     -71.48530000
H      -47.13970000     -34.71140000     -70.53420000
H      -47.24730000     -36.28160000     -71.18440000
C      -44.79090000     -34.52250000     -69.33370000
H      -45.66410000     -33.87850000     -69.46680000
H      -45.32420000     -35.47180000     -69.18540000
C      -43.98690000     -34.40730000     -70.66000000
C      -42.64970000     -34.09440000     -70.83650000
C      -44.66380000     -34.59170000     -71.92480000
H      -41.88890000     -34.13780000     -70.00710000
C      -43.83980000     -34.41510000     -73.01460000
C      -46.00530000     -34.86680000     -72.35070000
C      -46.07310000     -34.84780000     -73.74720000
S      -42.19920000     -34.08650000     -72.55420000
S      -44.57200000     -34.57920000     -74.59860000
H      -47.01460000     -34.96360000     -74.40410000
