40
Properties=species:S:1:pos:R:3 #=T CELL(abcABC):=T 1.889726e+02=T 90.00000=T Traj:=T positionsangstrom=T Step:=T 0=T Bead:=T pbc="F F F"
C      -45.53890000     -32.96350000     -67.28930000
C      -44.94320000     -34.05200000     -67.99940000
C      -43.74930000     -33.77090000     -68.62830000
C      -43.18230000     -32.47770000     -68.64790000
C      -43.69310000     -31.48710000     -67.79770000
C      -44.88890000     -31.76840000     -67.09610000
H      -46.52680000     -33.12300000     -66.82920000
H      -43.27420000     -34.58620000     -69.13650000
H      -43.09980000     -30.54010000     -67.76180000
H      -45.23460000     -30.97750000     -66.46600000
C      -42.01030000     -32.24930000     -69.50680000
H      -41.01750000     -32.36360000     -69.02110000
H      -42.02680000     -31.24140000     -70.03210000
C      -45.64910000     -35.34700000     -68.06790000
H      -45.06170000     -35.98130000     -68.73250000
H      -45.85230000     -35.89540000     -67.14680000
S      -41.76520000     -33.44300000     -70.89900000
S      -47.33460000     -35.15250000     -68.83100000
C      -43.18690000     -33.09920000     -72.02690000
H      -43.90130000     -32.38170000     -71.58360000
H      -42.76140000     -32.50260000     -72.86090000
C      -46.91030000     -34.83840000     -70.57220000
H      -47.79180000     -34.99790000     -71.20040000
H      -46.12550000     -35.43620000     -71.04460000
C      -46.60520000     -33.31670000     -70.79710000
H      -47.20920000     -32.67910000     -70.12040000
H      -45.57100000     -33.09830000     -70.46810000
C      -43.81080000     -34.36870000     -72.53080000
H      -44.37350000     -34.81050000     -71.67190000
H      -43.08450000     -35.11740000     -72.82420000
C      -44.81910000     -34.01770000     -73.54960000
C      -44.73690000     -34.31880000     -74.86100000
C      -46.03540000     -33.23440000     -73.35630000
H      -43.94820000     -34.92470000     -75.27990000
C      -46.66100000     -32.82250000     -74.54630000
C      -46.89450000     -32.95460000     -72.22740000
C      -47.94480000     -32.15300000     -72.55860000
S      -45.83240000     -33.49030000     -75.97120000
S      -48.20570000     -31.99720000     -74.34370000
H      -48.79650000     -31.93720000     -71.85070000
