40
Properties=species:S:1:pos:R:3 #=T CELL(abcABC):=T 1.889726e+02=T 90.00000=T Traj:=T positionsangstrom=T Step:=T 0=T Bead:=T pbc="F F F"
C      -44.49000000     -32.35020000     -69.78080000
C      -45.80450000     -31.93310000     -69.61700000
C      -46.34970000     -31.00740000     -70.53650000
C      -45.57230000     -30.66900000     -71.67100000
C      -44.14760000     -30.99420000     -71.76800000
C      -43.64670000     -31.81050000     -70.76920000
H      -44.22210000     -32.95230000     -68.89910000
H      -47.39090000     -30.70800000     -70.46210000
H      -43.46010000     -30.49410000     -72.47870000
H      -42.56570000     -32.22040000     -70.86950000
C      -46.30110000     -29.85830000     -72.77190000
H      -45.54900000     -29.49320000     -73.46570000
H      -46.77290000     -29.01500000     -72.42730000
C      -46.58780000     -32.21850000     -68.31530000
H      -46.33210000     -31.61470000     -67.45870000
H      -47.63370000     -32.12390000     -68.45380000
S      -47.44040000     -30.88280000     -73.80110000
S      -46.30490000     -33.89820000     -67.53610000
C      -46.47870000     -32.39330000     -74.37240000
H      -46.66530000     -32.55780000     -75.41870000
H      -45.43740000     -32.15190000     -74.29670000
C      -47.25350000     -35.07600000     -68.66240000
H      -48.32460000     -35.08730000     -68.44180000
H      -46.80810000     -35.98770000     -68.31940000
C      -46.94570000     -34.85610000     -70.15800000
H      -47.46240000     -35.67890000     -70.61840000
H      -47.31520000     -33.86790000     -70.65020000
C      -46.69180000     -33.62040000     -73.44680000
H      -47.47140000     -34.28440000     -73.84910000
H      -47.05460000     -33.22360000     -72.52490000
C      -45.42340000     -34.41940000     -73.12970000
C      -44.50390000     -34.52200000     -74.10000000
C      -44.95920000     -34.83930000     -71.83510000
H      -44.60530000     -34.22690000     -75.22460000
C      -43.55870000     -35.06770000     -71.93850000
C      -45.50570000     -35.03400000     -70.53930000
C      -44.58910000     -35.67760000     -69.71740000
S      -42.88430000     -34.99890000     -73.53860000
S      -42.92340000     -35.73540000     -70.44010000
H      -44.67360000     -35.81400000     -68.71120000
