40
Properties=species:S:1:pos:R:3 #=T CELL(abcABC):=T 1.889726e+02=T 90.00000=T Traj:=T positionsangstrom=T Step:=T 0=T Bead:=T pbc="F F F"
C      -44.52530000     -31.57110000     -69.44280000
C      -45.93720000     -31.59030000     -69.35400000
C      -46.67690000     -30.98840000     -70.40150000
C      -46.00640000     -30.42150000     -71.53960000
C      -44.61420000     -30.45750000     -71.57410000
C      -43.87900000     -30.97020000     -70.48190000
H      -44.01400000     -32.02300000     -68.63270000
H      -47.77080000     -31.08490000     -70.36580000
H      -44.09060000     -30.12230000     -72.48830000
H      -42.78710000     -30.96470000     -70.50300000
C      -46.92140000     -29.72700000     -72.58670000
H      -46.29700000     -29.10390000     -73.25270000
H      -47.73000000     -29.26380000     -72.00470000
C      -46.60960000     -32.15170000     -68.11140000
H      -46.41890000     -31.40720000     -67.28070000
H      -47.67290000     -32.13530000     -68.23800000
S      -47.77070000     -30.96900000     -73.85340000
S      -46.03020000     -33.86220000     -67.62940000
C      -46.33570000     -32.07570000     -74.11650000
H      -46.39730000     -32.63820000     -75.09380000
H      -45.38390000     -31.52540000     -74.14860000
C      -47.08770000     -34.89660000     -68.78110000
H      -48.19300000     -34.51230000     -68.76640000
H      -47.05200000     -35.90200000     -68.35370000
C      -46.60900000     -34.85090000     -70.22800000
H      -47.38160000     -35.39100000     -70.85330000
H      -46.62550000     -33.75320000     -70.52990000
C      -46.26310000     -33.17110000     -72.96580000
H      -47.23720000     -33.75640000     -72.83510000
H      -46.04680000     -32.63710000     -72.03420000
C      -45.05230000     -34.14140000     -73.03450000
C      -44.06050000     -34.03800000     -73.96630000
C      -44.71620000     -35.02920000     -71.98950000
H      -44.15890000     -33.42860000     -74.80450000
C      -43.54840000     -35.71560000     -72.22540000
C      -45.29140000     -35.35660000     -70.69610000
C      -44.52670000     -36.32090000     -69.98670000
S      -42.69130000     -35.18200000     -73.65990000
S      -43.10470000     -36.74390000     -70.90010000
H      -44.85570000     -36.58130000     -68.88760000
