40
Properties=species:S:1:pos:R:3 #=T CELL(abcABC):=T 1.889726e+02=T 90.00000=T Traj:=T positionsangstrom=T Step:=T 0=T Bead:=T pbc="F F F"
C      -44.40130000     -32.01200000     -69.42830000
C      -45.71630000     -31.62040000     -69.58630000
C      -46.26610000     -31.21880000     -70.83940000
C      -45.37690000     -31.09550000     -71.93750000
C      -44.05510000     -31.54490000     -71.79030000
C      -43.54060000     -31.90100000     -70.56540000
H      -44.03650000     -32.34920000     -68.44680000
H      -47.24590000     -30.83940000     -70.82560000
H      -43.33680000     -31.47270000     -72.58830000
H      -42.46330000     -32.16300000     -70.61250000
C      -45.82030000     -30.62080000     -73.28250000
H      -45.14820000     -30.79510000     -74.04010000
H      -45.95180000     -29.50560000     -73.31660000
C      -46.59220000     -31.98680000     -68.37200000
H      -46.43970000     -31.21530000     -67.60540000
H      -47.62700000     -31.94050000     -68.65740000
S      -47.46390000     -31.13810000     -73.84360000
S      -46.47710000     -33.63660000     -67.41690000
C      -47.24060000     -32.91800000     -74.28520000
H      -48.15590000     -33.14600000     -74.81500000
H      -46.46440000     -32.98890000     -75.00060000
C      -47.16920000     -34.92080000     -68.69230000
H      -48.27200000     -34.94600000     -68.63540000
H      -46.78070000     -35.80650000     -68.31750000
C      -46.74070000     -34.64720000     -70.14910000
H      -47.38670000     -35.34700000     -70.72670000
H      -46.97950000     -33.58670000     -70.34230000
C      -46.96350000     -33.81760000     -73.10560000
H      -47.73050000     -34.63840000     -73.13600000
H      -47.09320000     -33.28420000     -72.14090000
C      -45.48110000     -34.37010000     -73.07760000
C      -44.61410000     -34.40660000     -74.14050000
C      -44.87760000     -34.85310000     -71.85570000
H      -44.77880000     -34.23650000     -75.19840000
C      -43.58080000     -35.10180000     -72.00100000
C      -45.36010000     -34.85780000     -70.47530000
C      -44.36030000     -35.11130000     -69.57150000
S      -42.99340000     -34.93550000     -73.61130000
S      -42.84260000     -35.49710000     -70.42250000
H      -44.50270000     -35.20440000     -68.54070000
