40
Properties=species:S:1:pos:R:3 #=T CELL(abcABC):=T 1.889726e+02=T 90.00000=T Traj:=T positionsangstrom=T Step:=T 0=T Bead:=T pbc="F F F"
C      -42.59720000     -36.36610000     -70.47080000
C      -43.73970000     -36.04900000     -69.70160000
C      -44.97410000     -36.36100000     -70.21590000
C      -45.16720000     -36.97960000     -71.47670000
C      -44.02250000     -37.28490000     -72.20360000
C      -42.71230000     -36.99940000     -71.68380000
H      -41.59830000     -35.96550000     -70.20380000
H      -45.84940000     -35.95980000     -69.69600000
H      -44.07720000     -37.52960000     -73.24470000
H      -41.87560000     -37.20910000     -72.28200000
C      -46.43650000     -37.02930000     -72.18970000
H      -47.22440000     -37.29590000     -71.49700000
H      -46.48810000     -37.68120000     -72.97540000
C      -43.50450000     -35.26160000     -68.42330000
H      -43.01760000     -35.99180000     -67.67140000
H      -42.71920000     -34.52230000     -68.69910000
S      -46.99060000     -35.32680000     -72.65250000
S      -44.86130000     -34.35790000     -67.81270000
C      -45.50750000     -34.54010000     -73.46460000
H      -44.92800000     -35.26060000     -74.03830000
H      -45.94300000     -33.89940000     -74.20190000
C      -44.84220000     -32.78990000     -68.81750000
H      -43.93690000     -32.76460000     -69.41720000
H      -44.66100000     -32.00220000     -68.14150000
C      -46.15490000     -32.64470000     -69.60480000
H      -46.33920000     -33.52250000     -70.24640000
H      -46.99380000     -32.51340000     -68.95980000
C      -44.72490000     -33.65680000     -72.48130000
H      -43.65090000     -33.76820000     -72.57660000
H      -45.13790000     -33.86250000     -71.51170000
C      -45.00490000     -32.11960000     -72.82150000
C      -44.99130000     -31.54610000     -74.08470000
C      -45.63890000     -31.27550000     -71.80310000
H      -44.70980000     -32.07690000     -75.00290000
C      -45.90180000     -30.02780000     -72.33690000
C      -46.00700000     -31.40260000     -70.41650000
C      -46.66330000     -30.21900000     -69.94970000
S      -45.63800000     -29.83640000     -74.07200000
S      -46.63150000     -28.97210000     -71.24730000
H      -47.02000000     -29.95990000     -69.01110000
