40
Properties=species:S:1:pos:R:3 #=T CELL(abcABC):=T 1.889726e+02=T 90.00000=T Traj:=T positionsangstrom=T Step:=T 0=T Bead:=T pbc="F F F"
C      -44.28150000     -32.03730000     -69.30990000
C      -45.67120000     -31.74230000     -69.32710000
C      -46.33560000     -31.33480000     -70.56440000
C      -45.55040000     -31.01770000     -71.70290000
C      -44.19030000     -31.33460000     -71.68170000
C      -43.58080000     -31.92600000     -70.52510000
H      -43.79320000     -32.33150000     -68.39270000
H      -47.41860000     -31.16180000     -70.55350000
H      -43.58120000     -31.19080000     -72.52180000
H      -42.54350000     -31.89530000     -70.47030000
C      -46.10720000     -30.40860000     -72.99910000
H      -45.34610000     -30.47450000     -73.77470000
H      -46.34540000     -29.34570000     -72.80050000
C      -46.60930000     -32.01980000     -68.14150000
H      -46.23870000     -31.33090000     -67.39290000
H      -47.65130000     -31.82780000     -68.26570000
S      -47.62530000     -31.00590000     -73.73930000
S      -46.41920000     -33.77680000     -67.52430000
C      -46.90440000     -32.51150000     -74.50340000
H      -47.69290000     -32.89080000     -75.14130000
H      -46.00180000     -32.30760000     -75.03350000
C      -47.27640000     -34.83550000     -68.77740000
H      -48.32790000     -34.54720000     -68.58710000
H      -47.13730000     -35.79890000     -68.40410000
C      -46.91610000     -34.78320000     -70.27250000
H      -47.58190000     -35.49610000     -70.75980000
H      -47.20440000     -33.83020000     -70.68400000
C      -46.72560000     -33.62350000     -73.36680000
H      -47.51860000     -34.27290000     -73.46200000
H      -46.88580000     -33.14730000     -72.38810000
C      -45.32220000     -34.20070000     -73.23170000
C      -44.28860000     -34.08040000     -74.08610000
C      -44.86210000     -34.76020000     -71.94930000
H      -44.21020000     -33.62660000     -75.11240000
C      -43.55240000     -35.18450000     -72.01040000
C      -45.46160000     -35.01530000     -70.67460000
C      -44.51690000     -35.55720000     -69.79770000
S      -42.82400000     -34.87110000     -73.58040000
S      -42.91970000     -35.85280000     -70.55040000
H      -44.60970000     -35.99230000     -68.80390000
