40
Properties=species:S:1:pos:R:3 #=T CELL(abcABC):=T 1.889726e+02=T 90.00000=T Traj:=T positionsangstrom=T Step:=T 0=T Bead:=T pbc="F F F"
C      -44.14400000     -31.89490000     -69.21720000
C      -45.55620000     -31.94440000     -69.45780000
C      -46.05880000     -31.55840000     -70.70810000
C      -45.21210000     -31.20010000     -71.80970000
C      -43.83840000     -31.23310000     -71.53120000
C      -43.27020000     -31.59790000     -70.27060000
H      -43.82570000     -32.19170000     -68.19110000
H      -47.16180000     -31.36720000     -70.75160000
H      -43.01570000     -31.02720000     -72.24470000
H      -42.18320000     -31.61590000     -70.08400000
C      -45.56240000     -30.70000000     -73.27710000
H      -44.77980000     -31.14680000     -73.91140000
H      -45.36040000     -29.67240000     -73.39200000
C      -46.47410000     -32.36910000     -68.31970000
H      -46.31470000     -31.77630000     -67.43200000
H      -47.49660000     -32.26740000     -68.69260000
S      -47.18720000     -30.95270000     -74.09730000
S      -46.22960000     -34.05200000     -67.61560000
C      -47.42590000     -32.75460000     -74.35430000
H      -48.49140000     -32.83880000     -74.52980000
H      -46.87800000     -33.04990000     -75.26670000
C      -47.36560000     -35.00350000     -68.69990000
H      -48.33110000     -34.58960000     -68.56300000
H      -47.31040000     -36.03920000     -68.31900000
C      -47.03120000     -34.98490000     -70.14960000
H      -47.79520000     -35.59950000     -70.63190000
H      -47.18460000     -33.91170000     -70.48580000
C      -47.11180000     -33.61200000     -73.09940000
H      -47.71420000     -34.55970000     -73.32650000
H      -47.56770000     -33.15150000     -72.24880000
C      -45.67780000     -34.03970000     -72.96080000
C      -44.67860000     -33.71250000     -73.91160000
C      -45.12580000     -34.66670000     -71.83200000
H      -44.86830000     -33.32710000     -74.94800000
C      -43.74930000     -34.88070000     -71.97530000
C      -45.62530000     -35.18260000     -70.56640000
C      -44.63600000     -35.81930000     -69.80190000
S      -43.15020000     -34.35460000     -73.43780000
S      -43.04450000     -35.75740000     -70.62870000
H      -44.77530000     -36.42730000     -68.94380000
