40
Properties=species:S:1:pos:R:3 #=T CELL(abcABC):=T 1.889726e+02=T 90.00000=T Traj:=T positionsangstrom=T Step:=T 0=T Bead:=T pbc="F F F"
C      -46.77230000     -30.71560000     -71.47010000
C      -47.39910000     -31.61440000     -70.63590000
C      -46.60940000     -32.13750000     -69.54460000
C      -45.30160000     -31.77700000     -69.28390000
C      -44.70360000     -30.95550000     -70.23390000
C      -45.44560000     -30.41500000     -71.27960000
H      -47.20840000     -30.17070000     -72.34500000
H      -47.13920000     -32.90240000     -68.99070000
H      -43.64610000     -30.72480000     -70.16510000
H      -45.05950000     -29.69750000     -72.02130000
C      -44.61220000     -32.25680000     -68.01890000
H      -45.23530000     -32.78350000     -67.26650000
H      -44.16210000     -31.39010000     -67.54280000
C      -48.78310000     -32.07420000     -70.90520000
H      -49.14650000     -32.73620000     -70.11820000
H      -49.34650000     -31.08840000     -70.87700000
S      -43.14700000     -33.28810000     -68.27190000
S      -49.11600000     -32.94480000     -72.48420000
C      -43.71270000     -35.00570000     -68.34080000
H      -42.82670000     -35.58180000     -68.45100000
H      -44.25960000     -35.31470000     -67.41690000
C      -48.58170000     -34.69980000     -72.31040000
H      -48.57230000     -34.99430000     -73.36810000
H      -49.38390000     -35.30350000     -71.76090000
C      -47.21400000     -34.82240000     -71.63270000
H      -47.20920000     -34.32010000     -70.69000000
H      -47.16310000     -35.90840000     -71.50540000
C      -44.57400000     -35.30680000     -69.57670000
H      -45.46710000     -34.73710000     -69.37570000
H      -44.78810000     -36.43470000     -69.54480000
C      -43.91880000     -34.88690000     -70.93210000
C      -42.60290000     -34.86630000     -71.17070000
C      -44.67710000     -34.43810000     -72.07170000
H      -41.87630000     -35.23570000     -70.42770000
C      -43.75570000     -33.99630000     -73.07350000
C      -46.00540000     -34.32040000     -72.49760000
C      -46.06970000     -33.92180000     -73.86360000
S      -42.06660000     -34.61880000     -72.81900000
S      -44.50810000     -33.60420000     -74.60810000
H      -47.01520000     -33.67910000     -74.40260000
