40
Properties=species:S:1:pos:R:3 #=T CELL(abcABC):=T 1.889726e+02=T 90.00000=T Traj:=T positionsangstrom=T Step:=T 0=T Bead:=T pbc="F F F"
C      -42.85400000     -35.23150000     -70.23500000
C      -43.89370000     -35.82170000     -69.47580000
C      -44.88010000     -36.46820000     -70.19710000
C      -44.89900000     -36.58560000     -71.63630000
C      -43.80060000     -36.02180000     -72.32580000
C      -42.75740000     -35.38070000     -71.60860000
H      -42.03560000     -34.71710000     -69.73070000
H      -45.80620000     -36.82770000     -69.69510000
H      -43.72810000     -36.21480000     -73.41910000
H      -41.88370000     -34.91030000     -72.15980000
C      -46.05770000     -37.21000000     -72.35200000
H      -46.23800000     -38.18710000     -71.92100000
H      -45.96770000     -37.27500000     -73.43280000
C      -43.93290000     -35.49020000     -68.01570000
H      -44.22410000     -36.32620000     -67.35290000
H      -42.97210000     -35.06020000     -67.73370000
S      -47.71650000     -36.22470000     -72.10590000
S      -45.14940000     -34.12760000     -67.44030000
C      -47.67810000     -34.58380000     -73.01770000
H      -48.07180000     -34.65920000     -74.05740000
H      -48.40290000     -33.98120000     -72.47790000
C      -44.79280000     -32.60620000     -68.39610000
H      -43.72420000     -32.36430000     -68.48710000
H      -45.23940000     -31.84470000     -67.75930000
C      -45.31220000     -32.73180000     -69.76170000
H      -44.72390000     -33.45250000     -70.25790000
H      -46.35390000     -33.06230000     -69.76350000
C      -46.24010000     -33.98040000     -72.92790000
H      -45.62520000     -34.45100000     -73.63750000
H      -45.82760000     -34.33290000     -71.94070000
C      -46.07700000     -32.48470000     -73.08230000
C      -46.25800000     -31.84460000     -74.28780000
C      -45.47410000     -31.47110000     -72.12640000
H      -46.58440000     -32.21270000     -75.32000000
C      -45.31330000     -30.24490000     -72.61670000
C      -45.19530000     -31.46030000     -70.66230000
C      -44.72390000     -30.26310000     -70.27870000
S      -45.83920000     -30.13600000     -74.41410000
S      -44.66630000     -29.06290000     -71.53240000
H      -44.16360000     -30.09560000     -69.29100000
