40
Properties=species:S:1:pos:R:3 #=T CELL(abcABC):=T 1.889726e+02=T 90.00000=T Traj:=T positionsangstrom=T Step:=T 0=T Bead:=T pbc="F F F"
C      -45.88550000     -31.69180000     -68.23920000
C      -45.54250000     -30.70890000     -69.17380000
C      -46.40320000     -30.30490000     -70.20410000
C      -47.63160000     -30.97910000     -70.39570000
C      -48.01290000     -31.97260000     -69.50220000
C      -47.25430000     -32.13470000     -68.36690000
H      -45.14720000     -31.88270000     -67.40620000
H      -46.10680000     -29.47770000     -70.77120000
H      -49.06640000     -32.35110000     -69.47720000
H      -47.67500000     -32.74710000     -67.49940000
C      -48.55500000     -30.67370000     -71.52240000
H      -48.55010000     -29.69270000     -71.86130000
H      -49.58030000     -30.91730000     -71.21230000
C      -44.17330000     -30.16150000     -69.10290000
H      -44.06260000     -29.20570000     -69.69230000
H      -43.99620000     -30.04720000     -68.06710000
S      -48.36710000     -31.79480000     -72.99110000
S      -42.91580000     -31.53490000     -69.55960000
C      -47.56840000     -33.29310000     -72.29360000
H      -46.98580000     -32.97540000     -71.44430000
H      -48.36100000     -33.99800000     -71.98100000
C      -42.85670000     -31.67570000     -71.40450000
H      -41.79600000     -31.89640000     -71.63530000
H      -43.07750000     -30.61840000     -71.79120000
C      -43.77500000     -32.62200000     -72.03960000
H      -44.80060000     -32.31790000     -71.80240000
H      -43.68820000     -32.37900000     -73.15480000
C      -46.60030000     -33.85870000     -73.36620000
H      -45.80520000     -33.07960000     -73.54040000
H      -47.16530000     -34.06700000     -74.24700000
C      -45.85330000     -35.10140000     -72.94220000
C      -46.28590000     -36.35780000     -73.21860000
C      -44.55120000     -35.14400000     -72.28880000
H      -47.16790000     -36.71800000     -73.73690000
C      -44.05470000     -36.46550000     -72.17170000
C      -43.55740000     -34.14970000     -71.86260000
C      -42.44960000     -34.77020000     -71.28630000
S      -45.16380000     -37.66110000     -72.74230000
S      -42.44270000     -36.53480000     -71.49950000
H      -41.59150000     -34.19890000     -70.93170000
