40
Properties=species:S:1:pos:R:3 #=T CELL(abcABC):=T 1.889726e+02=T 90.00000=T Traj:=T positionsangstrom=T Step:=T 0=T Bead:=T pbc="F F F"
C      -47.99530000     -32.18650000     -70.36720000
C      -47.99620000     -33.61610000     -70.16810000
C      -46.97250000     -34.18980000     -69.33120000
C      -45.97560000     -33.41880000     -68.67570000
C      -46.00900000     -32.04710000     -68.98320000
C      -46.96310000     -31.43450000     -69.75050000
H      -48.74100000     -31.77140000     -71.03490000
H      -47.01810000     -35.28680000     -69.12070000
H      -45.23750000     -31.46020000     -68.42970000
H      -46.94820000     -30.38930000     -69.78740000
C      -44.93640000     -33.98710000     -67.82490000
H      -44.93810000     -35.16350000     -67.82860000
H      -45.01500000     -33.95950000     -66.71510000
C      -48.99880000     -34.43400000     -70.88620000
H      -48.88340000     -35.47680000     -70.43350000
H      -50.01140000     -34.08780000     -70.63080000
S      -43.20450000     -33.46740000     -68.14450000
S      -48.88380000     -34.42630000     -72.73140000
C      -42.66900000     -34.94310000     -69.29670000
H      -41.61780000     -34.85440000     -69.29250000
H      -42.93600000     -35.88970000     -68.73270000
C      -47.41560000     -35.55930000     -73.07740000
H      -47.35060000     -35.55190000     -74.15940000
H      -47.69100000     -36.52440000     -72.60310000
C      -46.14630000     -35.09910000     -72.48740000
H      -46.06590000     -35.17440000     -71.35290000
H      -45.33490000     -35.82560000     -72.74350000
C      -43.45770000     -34.98900000     -70.60720000
H      -44.47040000     -35.43240000     -70.45730000
H      -42.87200000     -35.74310000     -71.22220000
C      -43.43320000     -33.70430000     -71.38180000
C      -42.30840000     -32.89390000     -71.32900000
C      -44.28180000     -33.33060000     -72.47350000
H      -41.47260000     -33.03240000     -70.57570000
C      -43.78880000     -32.20740000     -73.17660000
C      -45.52730000     -33.80380000     -72.99270000
C      -45.87170000     -33.06570000     -74.12680000
S      -42.23510000     -31.72660000     -72.55530000
S      -44.70110000     -31.82930000     -74.60760000
H      -46.86850000     -33.18130000     -74.61960000
