40
Properties=species:S:1:pos:R:3 #=T CELL(abcABC):=T 1.889726e+02=T 90.00000=T Traj:=T positionsangstrom=T Step:=T 0=T Bead:=T pbc="F F F"
C      -47.96070000     -32.07540000     -70.36940000
C      -47.94650000     -33.45880000     -70.23290000
C      -47.05380000     -34.03280000     -69.28710000
C      -46.07160000     -33.28970000     -68.65220000
C      -46.05350000     -31.88130000     -68.86280000
C      -46.99610000     -31.32010000     -69.74410000
H      -48.70540000     -31.66050000     -70.98950000
H      -47.02180000     -35.14210000     -69.17920000
H      -45.18080000     -31.22810000     -68.51910000
H      -47.08710000     -30.25690000     -69.85430000
C      -45.06860000     -33.98990000     -67.68400000
H      -45.24260000     -35.02550000     -67.71960000
H      -45.21880000     -33.58580000     -66.68810000
C      -49.09540000     -34.30990000     -70.84000000
H      -49.16670000     -35.29770000     -70.39650000
H      -50.02510000     -33.84370000     -70.71530000
S      -43.30750000     -33.44960000     -68.15330000
S      -49.00660000     -34.48670000     -72.68790000
C      -42.72790000     -34.79090000     -69.20250000
H      -41.63180000     -34.68870000     -69.35530000
H      -42.79650000     -35.82430000     -68.75690000
C      -47.56210000     -35.52780000     -73.06060000
H      -47.43650000     -35.48230000     -74.16330000
H      -47.77180000     -36.57620000     -72.71540000
C      -46.15430000     -35.15140000     -72.43440000
H      -46.44260000     -35.03010000     -71.36970000
H      -45.67130000     -36.08110000     -72.44930000
C      -43.47690000     -34.89610000     -70.50390000
H      -44.54160000     -35.05900000     -70.36640000
H      -43.23530000     -35.89080000     -70.87390000
C      -43.13800000     -33.79670000     -71.50110000
C      -41.97320000     -33.04130000     -71.53990000
C      -44.04670000     -33.48810000     -72.58880000
H      -41.16140000     -32.99240000     -70.83180000
C      -43.64430000     -32.36120000     -73.27060000
C      -45.32930000     -34.01770000     -73.02400000
C      -45.78960000     -33.31390000     -74.09130000
S      -42.14260000     -31.72910000     -72.69400000
S      -44.76350000     -31.90110000     -74.52660000
H      -46.75340000     -33.41440000     -74.62160000
