40
Properties=species:S:1:pos:R:3 #=T CELL(abcABC):=T 1.889726e+02=T 90.00000=T Traj:=T positionsangstrom=T Step:=T 0=T Bead:=T pbc="F F F"
C      -47.92770000     -32.29390000     -70.41660000
C      -47.92000000     -33.69330000     -70.17730000
C      -46.86280000     -34.30340000     -69.40790000
C      -45.90890000     -33.42100000     -68.82110000
C      -45.94800000     -32.06890000     -69.06980000
C      -46.93530000     -31.49790000     -69.84910000
H      -48.69690000     -31.97770000     -71.11870000
H      -46.77480000     -35.33070000     -69.12520000
H      -45.17890000     -31.47370000     -68.66110000
H      -46.81670000     -30.47010000     -70.20720000
C      -44.96420000     -34.05350000     -67.73820000
H      -45.11630000     -35.09540000     -67.61290000
H      -45.23510000     -33.51100000     -66.87350000
C      -48.85080000     -34.65370000     -70.81330000
H      -48.57330000     -35.68070000     -70.67530000
H      -49.87310000     -34.60400000     -70.43930000
S      -43.12150000     -33.65240000     -68.11480000
S      -48.82260000     -34.33750000     -72.69680000
C      -42.71380000     -34.99840000     -69.30580000
H      -41.67930000     -34.94170000     -69.57410000
H      -42.88210000     -35.94170000     -68.79750000
C      -47.45500000     -35.46140000     -73.26510000
H      -47.41610000     -35.40710000     -74.34640000
H      -47.78260000     -36.45830000     -73.14500000
C      -46.04150000     -35.30570000     -72.66690000
H      -46.11250000     -35.25030000     -71.61100000
H      -45.37210000     -36.14230000     -73.04410000
C      -43.55380000     -34.95950000     -70.62190000
H      -44.59820000     -34.97810000     -70.28550000
H      -43.33920000     -35.73310000     -71.32610000
C      -43.32870000     -33.74490000     -71.47910000
C      -42.32780000     -32.78350000     -71.24030000
C      -44.18270000     -33.41430000     -72.59750000
H      -41.72920000     -32.71190000     -70.29020000
C      -43.81990000     -32.17170000     -73.15490000
C      -45.38810000     -33.97840000     -73.11890000
C      -45.86890000     -33.13920000     -74.15400000
S      -42.48020000     -31.40380000     -72.37360000
S      -44.86650000     -31.66020000     -74.42700000
H      -46.74930000     -33.38480000     -74.72320000
