40
Properties=species:S:1:pos:R:3 #=T CELL(abcABC):=T 1.889726e+02=T 90.00000=T Traj:=T positionsangstrom=T Step:=T 0=T Bead:=T pbc="F F F"
C      -46.54940000     -31.21880000     -72.76830000
C      -47.29760000     -31.98330000     -71.81930000
C      -47.29580000     -33.36640000     -71.93480000
C      -46.60230000     -34.03980000     -72.91180000
C      -45.72940000     -33.35370000     -73.72380000
C      -45.74090000     -31.95770000     -73.67930000
H      -46.48840000     -30.12320000     -72.66180000
H      -47.74870000     -33.97070000     -71.12550000
H      -45.20900000     -33.81790000     -74.47360000
H      -45.19640000     -31.35770000     -74.40380000
C      -46.66970000     -35.59090000     -73.06410000
H      -45.80230000     -35.89270000     -73.80790000
H      -47.61970000     -35.63930000     -73.68350000
C      -48.12860000     -31.16710000     -70.84270000
H      -48.44720000     -30.23090000     -71.29310000
H      -48.97930000     -31.72490000     -70.47970000
S      -46.80500000     -36.70010000     -71.64940000
S      -47.21310000     -30.82510000     -69.16910000
C      -45.12570000     -37.29440000     -71.05220000
H      -45.43880000     -38.21960000     -70.49190000
H      -44.55290000     -37.51520000     -71.97790000
C      -46.92860000     -32.54420000     -68.46720000
H      -47.79380000     -33.16310000     -68.71410000
H      -47.05020000     -32.41850000     -67.41430000
C      -45.62910000     -33.31960000     -68.74120000
H      -45.05800000     -33.53330000     -67.79740000
H      -45.96430000     -34.28470000     -69.11410000
C      -44.41270000     -36.19950000     -70.24300000
H      -43.65420000     -36.58690000     -69.58220000
H      -45.15230000     -35.82630000     -69.55450000
C      -43.83140000     -35.06370000     -71.10190000
C      -43.11840000     -35.18270000     -72.30140000
C      -43.94080000     -33.64470000     -70.70880000
H      -42.76930000     -36.17100000     -72.68350000
C      -43.10630000     -32.84480000     -71.59190000
C      -44.60710000     -32.78790000     -69.75650000
C      -44.26740000     -31.44320000     -69.89270000
S      -42.37070000     -33.73670000     -72.87030000
S      -43.17110000     -31.14520000     -71.20080000
H      -44.55340000     -30.60010000     -69.33770000
