40
Properties=species:S:1:pos:R:3 #=T CELL(abcABC):=T 1.889726e+02=T 90.00000=T Traj:=T positionsangstrom=T Step:=T 0=T Bead:=T pbc="F F F"
C      -47.56090000     -32.92950000     -70.41860000
C      -47.37970000     -34.31270000     -70.45480000
C      -46.43640000     -34.90650000     -69.64040000
C      -45.58570000     -34.14950000     -68.92100000
C      -45.69570000     -32.73930000     -68.95500000
C      -46.68200000     -32.10300000     -69.66570000
H      -48.29130000     -32.46910000     -71.08990000
H      -46.36320000     -36.02810000     -69.61350000
H      -45.09910000     -32.08220000     -68.26460000
H      -46.71260000     -30.99030000     -69.66760000
C      -44.55470000     -34.80250000     -68.09320000
H      -44.44180000     -35.90790000     -68.19860000
H      -44.75700000     -34.70710000     -66.98120000
C      -48.41270000     -35.16140000     -71.13300000
H      -48.06100000     -36.26600000     -71.02630000
H      -49.34590000     -35.14330000     -70.62050000
S      -42.87470000     -34.04240000     -68.25240000
S      -48.65770000     -34.85630000     -72.96610000
C      -42.25860000     -34.78060000     -69.81350000
H      -41.27910000     -34.36270000     -69.89140000
H      -42.08260000     -35.80270000     -69.61070000
C      -47.14710000     -35.53930000     -73.80480000
H      -47.15340000     -35.19020000     -74.80190000
H      -47.11350000     -36.66650000     -73.69780000
C      -45.86130000     -35.08800000     -73.09580000
H      -45.74470000     -35.49610000     -72.10130000
H      -44.94870000     -35.42810000     -73.60650000
C      -43.15030000     -34.72030000     -71.04160000
H      -44.07760000     -35.34460000     -70.99090000
H      -42.67170000     -35.24220000     -71.89280000
C      -43.56070000     -33.31620000     -71.43420000
C      -42.82930000     -32.22860000     -70.94120000
C      -44.52180000     -32.84680000     -72.38180000
H      -42.03140000     -32.12390000     -70.22480000
C      -44.48290000     -31.50580000     -72.65410000
C      -45.56980000     -33.47320000     -73.09740000
C      -46.21160000     -32.58040000     -73.98390000
S      -43.22160000     -30.64500000     -71.69000000
S      -45.53310000     -30.95440000     -73.93480000
H      -47.04130000     -32.73260000     -74.58630000
