40
Properties=species:S:1:pos:R:3 #=T CELL(abcABC):=T 1.889726e+02=T 90.00000=T Traj:=T positionsangstrom=T Step:=T 0=T Bead:=T pbc="F F F"
C      -45.90460000     -31.71540000     -68.25830000
C      -45.48960000     -30.80290000     -69.22100000
C      -46.40290000     -30.46510000     -70.30650000
C      -47.71840000     -30.89250000     -70.29040000
C      -48.15600000     -31.72110000     -69.24460000
C      -47.24200000     -32.20970000     -68.25460000
H      -45.16310000     -32.01380000     -67.56290000
H      -45.94800000     -29.91660000     -71.09250000
H      -49.22090000     -32.14400000     -69.23410000
H      -47.57060000     -33.08470000     -67.53650000
C      -48.60430000     -30.55530000     -71.52920000
H      -48.30830000     -29.56120000     -71.98540000
H      -49.70560000     -30.53460000     -71.28240000
C      -44.07300000     -30.31570000     -69.22460000
H      -43.81350000     -29.46480000     -69.92100000
H      -43.72620000     -29.76760000     -68.33770000
S      -48.41430000     -31.87380000     -72.81600000
S      -42.80090000     -31.54330000     -69.57100000
C      -47.30490000     -33.30780000     -72.27710000
H      -46.51760000     -33.07830000     -71.59710000
H      -47.92070000     -34.06680000     -71.70700000
C      -42.98500000     -31.68910000     -71.35910000
H      -42.09080000     -31.98880000     -71.79070000
H      -43.11820000     -30.66800000     -71.81610000
C      -44.08110000     -32.56000000     -71.83390000
H      -44.89660000     -32.55990000     -71.08530000
H      -44.51090000     -32.19020000     -72.77090000
C      -46.75530000     -34.02060000     -73.50530000
H      -46.24010000     -33.33880000     -74.12130000
H      -47.53070000     -34.41200000     -74.16970000
C      -45.84850000     -35.17480000     -73.07290000
C      -46.22160000     -36.48650000     -73.36560000
C      -44.58290000     -35.14660000     -72.42200000
H      -47.00690000     -36.90050000     -73.96640000
C      -43.96600000     -36.40540000     -72.30200000
C      -43.72530000     -34.08150000     -71.91560000
C      -42.52020000     -34.57990000     -71.39430000
S      -45.02190000     -37.70150000     -72.84800000
S      -42.42160000     -36.35180000     -71.39020000
H      -41.87490000     -33.86420000     -70.88230000
