40
Properties=species:S:1:pos:R:3 #=T CELL(abcABC):=T 1.889726e+02=T 90.00000=T Traj:=T positionsangstrom=T Step:=T 0=T Bead:=T pbc="F F F"
C      -47.66650000     -32.47720000     -70.53300000
C      -47.74530000     -33.84630000     -70.22020000
C      -46.83940000     -34.37680000     -69.21590000
C      -45.90060000     -33.50200000     -68.66550000
C      -45.86690000     -32.12960000     -68.94300000
C      -46.77210000     -31.62790000     -69.88170000
H      -48.40640000     -31.98820000     -71.23160000
H      -46.80320000     -35.49750000     -69.15410000
H      -45.18600000     -31.50530000     -68.45740000
H      -46.75780000     -30.52300000     -70.06800000
C      -44.85830000     -34.10490000     -67.70370000
H      -44.94560000     -35.18640000     -67.58220000
H      -45.03020000     -33.66750000     -66.64980000
C      -48.72750000     -34.65770000     -71.02290000
H      -48.57780000     -35.72250000     -70.88520000
H      -49.77120000     -34.34940000     -70.68540000
S      -43.11960000     -33.79240000     -68.12050000
S      -48.71500000     -34.36890000     -72.84640000
C      -42.63040000     -35.05400000     -69.30360000
H      -41.49200000     -34.97720000     -69.45140000
H      -42.80900000     -36.01310000     -68.77720000
C      -47.45790000     -35.54690000     -73.47360000
H      -47.52420000     -35.35100000     -74.58240000
H      -47.80180000     -36.57680000     -73.20670000
C      -45.93740000     -35.36340000     -72.99670000
H      -45.84530000     -35.54550000     -71.96000000
H      -45.46310000     -36.18760000     -73.48040000
C      -43.41170000     -34.95560000     -70.64760000
H      -44.46670000     -35.16720000     -70.47970000
H      -43.15990000     -35.91180000     -71.15050000
C      -43.34510000     -33.69080000     -71.46260000
C      -42.48250000     -32.60660000     -71.19510000
C      -44.30540000     -33.32940000     -72.50210000
H      -41.73060000     -32.50090000     -70.41400000
C      -44.05030000     -32.02840000     -72.97130000
C      -45.37100000     -33.95640000     -73.27430000
C      -45.84880000     -33.06890000     -74.24320000
S      -42.67580000     -31.24430000     -72.22640000
S      -45.12360000     -31.47700000     -74.24250000
H      -46.53480000     -33.34050000     -74.98480000
