40
Properties=species:S:1:pos:R:3 #=T CELL(abcABC):=T 1.889726e+02=T 90.00000=T Traj:=T positionsangstrom=T Step:=T 0=T Bead:=T pbc="F F F"
C      -47.96050000     -33.32600000     -70.01980000
C      -47.58370000     -34.67580000     -70.21970000
C      -46.40150000     -35.11680000     -69.63940000
C      -45.61570000     -34.32620000     -68.77640000
C      -46.03390000     -32.99350000     -68.52410000
C      -47.16870000     -32.53910000     -69.16340000
H      -48.79630000     -32.96410000     -70.61500000
H      -46.14170000     -36.17380000     -69.86980000
H      -45.41980000     -32.34700000     -67.93110000
H      -47.47130000     -31.48340000     -69.06330000
C      -44.42780000     -34.93130000     -68.10100000
H      -44.23320000     -35.97640000     -68.33160000
H      -44.44800000     -34.82050000     -67.03590000
C      -48.24920000     -35.53180000     -71.24730000
H      -47.78290000     -36.50000000     -71.33270000
H      -49.32640000     -35.67530000     -71.11670000
S      -42.77270000     -34.07150000     -68.46920000
S      -48.23910000     -34.69270000     -72.92710000
C      -42.19190000     -34.89450000     -70.14470000
H      -41.17540000     -34.55890000     -70.32260000
H      -42.14750000     -35.92280000     -69.85830000
C      -46.93320000     -35.42450000     -73.88160000
H      -47.03640000     -35.25440000     -75.02190000
H      -46.92580000     -36.51310000     -73.80920000
C      -45.57880000     -34.88440000     -73.39370000
H      -45.29660000     -35.40700000     -72.47810000
H      -44.87350000     -35.15730000     -74.15990000
C      -43.18230000     -34.53670000     -71.26750000
H      -44.13900000     -34.90080000     -71.01450000
H      -42.82370000     -35.08660000     -72.14270000
C      -43.35190000     -33.10280000     -71.66410000
C      -42.69440000     -32.01820000     -71.15120000
C      -44.47730000     -32.71650000     -72.47310000
H      -41.83510000     -32.10610000     -70.56980000
C      -44.57060000     -31.30050000     -72.63200000
C      -45.48060000     -33.38550000     -73.25350000
C      -46.26030000     -32.50150000     -73.94090000
S      -43.27560000     -30.47140000     -71.75530000
S      -45.90880000     -30.82690000     -73.63070000
H      -47.12070000     -32.81630000     -74.57330000
