40
Properties=species:S:1:pos:R:3 #=T CELL(abcABC):=T 1.889726e+02=T 90.00000=T Traj:=T positionsangstrom=T Step:=T 0=T Bead:=T pbc="F F F"
C      -45.96260000     -31.62250000     -68.09480000
C      -45.49300000     -30.91150000     -69.23800000
C      -46.34680000     -30.62420000     -70.29340000
C      -47.70460000     -30.97910000     -70.27450000
C      -48.14560000     -31.69980000     -69.17570000
C      -47.26480000     -32.04090000     -68.11700000
H      -45.29200000     -31.85640000     -67.30730000
H      -46.00140000     -30.01160000     -71.20810000
H      -49.14250000     -32.01030000     -69.12970000
H      -47.65560000     -32.63850000     -67.15700000
C      -48.66730000     -30.75530000     -71.42160000
H      -48.46210000     -29.76450000     -71.85880000
H      -49.63960000     -30.71810000     -71.02980000
C      -44.02030000     -30.36480000     -69.17860000
H      -44.01390000     -29.53190000     -69.78170000
H      -43.81090000     -30.12810000     -68.11600000
S      -48.52230000     -31.93260000     -72.93660000
S      -42.56440000     -31.52380000     -69.65320000
C      -47.64990000     -33.38790000     -72.31100000
H      -46.92620000     -33.11920000     -71.54040000
H      -48.34250000     -34.05790000     -71.83080000
C      -42.87510000     -31.64150000     -71.51940000
H      -41.99120000     -32.17600000     -71.91980000
H      -42.95010000     -30.62590000     -71.87920000
C      -44.05040000     -32.51180000     -71.95110000
H      -44.85420000     -32.23090000     -71.26830000
H      -44.34140000     -32.23230000     -72.95270000
C      -46.80920000     -34.04600000     -73.37850000
H      -46.30550000     -33.19170000     -73.95870000
H      -47.47650000     -34.52370000     -74.26190000
C      -45.90580000     -35.18680000     -73.01020000
C      -46.16130000     -36.46900000     -73.46090000
C      -44.64100000     -35.12130000     -72.33790000
H      -47.01040000     -36.87120000     -73.95150000
C      -43.99030000     -36.35190000     -72.27480000
C      -43.82370000     -34.04070000     -71.73010000
C      -42.63270000     -34.58490000     -71.22180000
S      -44.89620000     -37.62750000     -72.99790000
S      -42.43620000     -36.30490000     -71.36360000
H      -41.85900000     -33.96140000     -70.72090000
