40
Properties=species:S:1:pos:R:3 #=T CELL(abcABC):=T 1.889726e+02=T 90.00000=T Traj:=T positionsangstrom=T Step:=T 0=T Bead:=T pbc="F F F"
C      -47.60760000     -34.01090000     -70.23370000
C      -47.11160000     -35.21190000     -70.70970000
C      -45.94280000     -35.81830000     -70.22580000
C      -45.15120000     -35.13640000     -69.21820000
C      -45.66550000     -33.87230000     -68.80960000
C      -46.84860000     -33.32370000     -69.29920000
H      -48.47070000     -33.54590000     -70.71210000
H      -45.65070000     -36.83290000     -70.54090000
H      -45.03840000     -33.22210000     -68.14020000
H      -47.05600000     -32.29920000     -68.97860000
C      -43.82510000     -35.65630000     -68.77640000
H      -43.35350000     -36.32150000     -69.50940000
H      -43.88220000     -36.21520000     -67.84150000
C      -48.00070000     -36.02200000     -71.70910000
H      -47.40640000     -36.86730000     -72.02360000
H      -49.02030000     -36.36850000     -71.42910000
S      -42.55170000     -34.45040000     -68.51910000
S      -48.34830000     -35.05880000     -73.24090000
C      -41.86280000     -34.08250000     -70.21060000
H      -41.13060000     -33.28070000     -69.94690000
H      -41.22060000     -34.98780000     -70.52160000
C      -46.66780000     -35.08010000     -74.11140000
H      -46.98100000     -34.74710000     -75.09080000
H      -46.33830000     -36.13480000     -74.18950000
C      -45.41550000     -34.38430000     -73.48040000
H      -44.97280000     -35.04170000     -72.70080000
H      -44.69540000     -34.39040000     -74.32230000
C      -42.88590000     -33.84940000     -71.30420000
H      -43.67710000     -34.59800000     -71.22490000
H      -42.29950000     -33.96180000     -72.26440000
C      -43.46290000     -32.46620000     -71.46550000
C      -42.94740000     -31.34220000     -70.91410000
C      -44.72070000     -32.24800000     -72.24170000
H      -42.03650000     -31.37060000     -70.22950000
C      -44.98580000     -30.87890000     -72.20840000
C      -45.63230000     -32.97920000     -73.00930000
C      -46.67590000     -32.23690000     -73.45300000
S      -44.00170000     -29.87200000     -71.19320000
S      -46.52230000     -30.56210000     -72.97720000
H      -47.49720000     -32.57860000     -74.19500000
