40
Properties=species:S:1:pos:R:3 #=T CELL(abcABC):=T 1.889726e+02=T 90.00000=T Traj:=T positionsangstrom=T Step:=T 0=T Bead:=T pbc="F F F"
C      -43.07410000     -35.49320000     -69.00480000
C      -44.32360000     -35.31350000     -68.39080000
C      -45.52270000     -35.90390000     -68.89780000
C      -45.40190000     -36.50930000     -70.17240000
C      -44.16500000     -36.75880000     -70.78650000
C      -43.00840000     -36.36750000     -70.13770000
H      -42.15440000     -35.14940000     -68.64310000
H      -46.47640000     -35.70850000     -68.42460000
H      -43.97080000     -37.47030000     -71.60680000
H      -42.04710000     -36.68350000     -70.49180000
C      -46.72250000     -36.94640000     -70.77050000
H      -47.08070000     -37.88340000     -70.15410000
H      -46.74970000     -37.32070000     -71.79620000
C      -44.50840000     -34.28250000     -67.26520000
H      -45.16370000     -34.81070000     -66.57530000
H      -43.73320000     -33.95910000     -66.63840000
S      -47.95490000     -35.62960000     -70.70380000
S      -45.40050000     -32.79980000     -67.87760000
C      -47.43120000     -34.29430000     -71.96780000
H      -48.11400000     -34.51440000     -72.80080000
H      -47.78910000     -33.34480000     -71.52740000
C      -44.56640000     -32.12260000     -69.37580000
H      -44.19930000     -33.07250000     -69.88790000
H      -43.68110000     -31.45200000     -69.21280000
C      -45.59370000     -31.41910000     -70.29550000
H      -46.33360000     -32.17590000     -70.40040000
H      -45.92570000     -30.57000000     -69.79940000
C      -45.94400000     -34.22910000     -72.30690000
H      -45.48290000     -35.16080000     -72.64540000
H      -45.36260000     -34.10580000     -71.37230000
C      -45.54090000     -33.14700000     -73.26130000
C      -45.67810000     -33.28020000     -74.62120000
C      -45.27070000     -31.73410000     -72.88780000
H      -45.84480000     -34.12970000     -75.15470000
C      -44.85280000     -31.03770000     -73.99190000
C      -45.14700000     -31.05770000     -71.64470000
C      -44.60990000     -29.79200000     -71.92500000
S      -45.08150000     -31.89250000     -75.54230000
S      -44.37910000     -29.41120000     -73.67150000
H      -44.58170000     -28.95920000     -71.21640000
