40
Properties=species:S:1:pos:R:3 #=T CELL(abcABC):=T 1.889726e+02=T 90.00000=T Traj:=T positionsangstrom=T Step:=T 0=T Bead:=T pbc="F F F"
C      -46.90010000     -30.75220000     -70.58980000
C      -45.79900000     -31.01940000     -69.71570000
C      -44.46270000     -30.75290000     -70.13940000
C      -44.28110000     -30.35300000     -71.47520000
C      -45.35810000     -30.08420000     -72.31160000
C      -46.68410000     -30.22410000     -71.84090000
H      -47.76520000     -30.90380000     -69.97030000
H      -43.65950000     -31.00670000     -69.46360000
H      -45.14300000     -29.81830000     -73.35320000
H      -47.49480000     -29.94050000     -72.48720000
C      -42.83790000     -30.29210000     -72.00370000
H      -42.27960000     -29.32780000     -71.67360000
H      -42.77670000     -30.37110000     -73.09660000
C      -46.18960000     -31.55400000     -68.40180000
H      -45.38630000     -31.37120000     -67.61400000
H      -47.18640000     -31.13350000     -68.22970000
S      -41.82900000     -31.76030000     -71.44040000
S      -46.61000000     -33.37750000     -68.52390000
C      -42.65350000     -32.99590000     -72.57500000
H      -43.48350000     -32.52270000     -73.09880000
H      -41.86160000     -33.23490000     -73.35000000
C      -44.85670000     -34.01480000     -68.79380000
H      -44.33120000     -33.91910000     -67.79320000
H      -44.30080000     -33.40530000     -69.50620000
C      -44.90380000     -35.52170000     -69.35570000
H      -43.92810000     -35.86770000     -69.38790000
H      -45.23180000     -36.22360000     -68.54600000
C      -43.14260000     -34.37160000     -72.04790000
H      -43.28610000     -34.32600000     -70.94420000
H      -42.44820000     -35.15110000     -72.33100000
C      -44.47110000     -34.71680000     -72.61140000
C      -44.69680000     -34.64340000     -73.99380000
C      -45.52630000     -35.27220000     -71.88560000
H      -44.07060000     -34.28960000     -74.79880000
C      -46.60290000     -35.55390000     -72.72730000
C      -45.85150000     -35.76630000     -70.54830000
C      -47.12780000     -36.29250000     -70.41750000
S      -46.38550000     -35.06900000     -74.33400000
S      -48.01290000     -36.18040000     -71.88380000
H      -47.64630000     -36.76540000     -69.56390000
