40
Properties=species:S:1:pos:R:3 #=T CELL(abcABC):=T 1.889726e+02=T 90.00000=T Traj:=T positionsangstrom=T Step:=T 0=T Bead:=T pbc="F F F"
C      -47.24620000     -35.35110000     -70.63890000
C      -46.40450000     -35.88120000     -71.55150000
C      -45.03790000     -36.04060000     -71.30730000
C      -44.53670000     -35.85770000     -70.04050000
C      -45.43890000     -35.28350000     -69.13350000
C      -46.72170000     -34.97140000     -69.36200000
H      -48.30120000     -35.20120000     -70.93410000
H      -44.45070000     -36.51630000     -72.17630000
H      -44.99280000     -35.07470000     -68.20850000
H      -47.29410000     -34.42150000     -68.63210000
C      -43.08720000     -36.00240000     -69.65170000
H      -42.62380000     -36.62200000     -70.44190000
H      -42.97170000     -36.58870000     -68.68440000
C      -46.93850000     -36.20240000     -72.92700000
H      -46.12790000     -36.41940000     -73.59130000
H      -47.65710000     -36.98890000     -72.83040000
S      -42.09480000     -34.49140000     -69.37690000
S      -47.94150000     -34.86790000     -73.68950000
C      -41.91070000     -33.95190000     -71.12860000
H      -41.01260000     -33.36550000     -71.11910000
H      -41.60430000     -34.71690000     -71.77890000
C      -46.67500000     -33.85750000     -74.74830000
H      -47.22960000     -33.20220000     -75.46980000
H      -46.02240000     -34.60430000     -75.31700000
C      -45.58960000     -32.97880000     -74.02970000
H      -44.91780000     -33.76500000     -73.70060000
H      -45.01810000     -32.52130000     -74.87640000
C      -43.10430000     -33.25940000     -71.84440000
H      -43.69090000     -34.11890000     -72.19360000
H      -42.62940000     -32.68430000     -72.63510000
C      -43.96390000     -32.29740000     -71.04170000
C      -43.74170000     -31.80710000     -69.72900000
C      -45.12760000     -31.73560000     -71.68900000
H      -42.91090000     -32.05060000     -69.11330000
C      -45.73730000     -30.78820000     -70.86060000
C      -45.89930000     -31.92480000     -72.93660000
C      -47.02720000     -31.09890000     -72.94660000
S      -44.84020000     -30.38110000     -69.40700000
S      -47.11890000     -30.03930000     -71.52340000
H      -47.65210000     -30.87610000     -73.78460000
