40
Properties=species:S:1:pos:R:3 #=T CELL(abcABC):=T 1.889726e+02=T 90.00000=T Traj:=T positionsangstrom=T Step:=T 0=T Bead:=T pbc="F F F"
C      -47.28420000     -35.51950000     -70.65430000
C      -46.33290000     -35.88130000     -71.70360000
C      -45.07970000     -36.23770000     -71.29330000
C      -44.56910000     -36.03390000     -70.01570000
C      -45.46140000     -35.48960000     -69.10760000
C      -46.81340000     -35.30470000     -69.36690000
H      -48.31860000     -35.35650000     -70.91460000
H      -44.32900000     -36.46300000     -72.01440000
H      -45.14180000     -35.09310000     -68.17170000
H      -47.48410000     -34.97820000     -68.53060000
C      -43.08530000     -36.17400000     -69.84310000
H      -42.55450000     -36.52230000     -70.70210000
H      -42.94960000     -36.94050000     -69.06740000
C      -46.85680000     -35.98190000     -73.13550000
H      -46.08540000     -36.28870000     -73.93460000
H      -47.57140000     -36.85190000     -73.17610000
S      -42.16600000     -34.61030000     -69.22650000
S      -47.83340000     -34.45800000     -73.65740000
C      -41.90030000     -33.65440000     -70.76860000
H      -41.40010000     -32.77130000     -70.39050000
H      -41.09790000     -34.25400000     -71.36740000
C      -46.56720000     -33.53470000     -74.73370000
H      -47.18110000     -32.75130000     -75.13960000
H      -46.24840000     -34.17610000     -75.53070000
C      -45.42500000     -33.07870000     -73.86350000
H      -45.08760000     -33.92410000     -73.28110000
H      -44.75380000     -32.57720000     -74.54160000
C      -43.10750000     -33.35730000     -71.60590000
H      -43.74700000     -34.18100000     -71.73390000
H      -42.79260000     -33.15150000     -72.69230000
C      -43.89930000     -32.20560000     -71.13630000
C      -43.60510000     -31.53390000     -69.91880000
C      -45.12480000     -31.70500000     -71.72550000
H      -42.71880000     -31.61180000     -69.30530000
C      -45.74950000     -30.71350000     -70.94370000
C      -45.91870000     -32.04290000     -72.86060000
C      -47.11560000     -31.37030000     -72.91950000
S      -44.82380000     -30.41210000     -69.45900000
S      -47.27700000     -30.11670000     -71.68090000
H      -47.79490000     -31.35590000     -73.78330000
