40
Properties=species:S:1:pos:R:3 #=T CELL(abcABC):=T 1.889726e+02=T 90.00000=T Traj:=T positionsangstrom=T Step:=T 0=T Bead:=T pbc="F F F"
C      -43.33690000     -35.23390000     -68.99270000
C      -44.59440000     -35.04170000     -68.35310000
C      -45.68270000     -35.76650000     -68.83850000
C      -45.56640000     -36.73120000     -69.93540000
C      -44.29370000     -37.02820000     -70.40010000
C      -43.18320000     -36.21370000     -69.93910000
H      -42.37130000     -34.98680000     -68.45340000
H      -46.65920000     -35.51900000     -68.39550000
H      -44.07890000     -37.82600000     -71.08120000
H      -42.19110000     -36.37750000     -70.39640000
C      -46.90590000     -37.33610000     -70.44120000
H      -47.65060000     -37.33460000     -69.67570000
H      -46.84850000     -38.37950000     -70.84790000
C      -44.82700000     -34.01830000     -67.24410000
H      -45.26450000     -34.49430000     -66.31440000
H      -43.88920000     -33.67760000     -66.79830000
S      -47.65220000     -36.31720000     -71.73240000
S      -45.69700000     -32.40050000     -67.80330000
C      -46.49970000     -35.28990000     -72.58660000
H      -45.46670000     -35.53620000     -72.44570000
H      -46.73060000     -35.56940000     -73.66350000
C      -44.95160000     -32.15670000     -69.48940000
H      -44.91090000     -33.08790000     -69.95920000
H      -43.96820000     -31.60160000     -69.52410000
C      -45.87060000     -31.18710000     -70.26630000
H      -46.81540000     -31.68430000     -70.36030000
H      -45.97060000     -30.33090000     -69.64160000
C      -46.62260000     -33.76480000     -72.30190000
H      -46.20920000     -33.60460000     -71.34330000
H      -47.64210000     -33.35630000     -72.25580000
C      -45.85550000     -32.91110000     -73.26390000
C      -45.55760000     -33.13580000     -74.55670000
C      -45.26090000     -31.65230000     -72.74520000
H      -45.94270000     -33.92820000     -75.10380000
C      -44.59200000     -31.04190000     -73.80530000
C      -45.24030000     -30.78670000     -71.58830000
C      -44.43600000     -29.66020000     -71.76780000
S      -44.65150000     -31.85490000     -75.30250000
S      -44.03160000     -29.44280000     -73.43630000
H      -44.18450000     -28.92880000     -70.99750000
