40
Properties=species:S:1:pos:R:3 #=T CELL(abcABC):=T 1.889726e+02=T 90.00000=T Traj:=T positionsangstrom=T Step:=T 0=T Bead:=T pbc="F F F"
C      -47.19120000     -34.98920000     -71.08370000
C      -46.16560000     -35.61130000     -71.87630000
C      -44.84710000     -35.67400000     -71.30000000
C      -44.58530000     -35.39600000     -69.91960000
C      -45.62760000     -34.67040000     -69.23020000
C      -46.88250000     -34.56400000     -69.82300000
H      -48.23630000     -34.71740000     -71.43610000
H      -44.11440000     -36.27170000     -71.80950000
H      -45.59750000     -34.36240000     -68.21410000
H      -47.61720000     -33.99390000     -69.21370000
C      -43.34130000     -35.83510000     -69.24520000
H      -42.78690000     -36.53860000     -69.86070000
H      -43.64170000     -36.41070000     -68.38960000
C      -46.26130000     -36.12880000     -73.31800000
H      -45.25130000     -36.17560000     -73.86830000
H      -46.64220000     -37.16140000     -73.32440000
S      -42.33770000     -34.37270000     -68.75250000
S      -47.23520000     -35.04430000     -74.52320000
C      -41.83740000     -33.55620000     -70.36320000
H      -41.30160000     -32.81930000     -69.83830000
H      -41.10400000     -34.21950000     -70.90340000
C      -45.99700000     -33.70060000     -75.00820000
H      -46.46580000     -32.84680000     -75.42990000
H      -45.36290000     -34.05590000     -75.81890000
C      -45.10120000     -33.21540000     -73.84820000
H      -44.49320000     -34.01210000     -73.32210000
H      -44.33520000     -32.57820000     -74.38800000
C      -42.84160000     -32.99140000     -71.30300000
H      -43.44730000     -33.77480000     -71.79730000
H      -42.22030000     -32.49540000     -72.05650000
C      -43.95750000     -32.07290000     -70.85100000
C      -44.05080000     -31.55160000     -69.57690000
C      -45.14030000     -31.77310000     -71.63570000
H      -43.22820000     -31.54160000     -68.89740000
C      -46.04810000     -30.99390000     -70.88120000
C      -45.80890000     -32.26820000     -72.82730000
C      -47.00670000     -31.69360000     -73.09590000
S      -45.55660000     -30.77430000     -69.25210000
S      -47.53820000     -30.68740000     -71.70730000
H      -47.71030000     -31.83980000     -73.86950000
