40
Properties=species:S:1:pos:R:3 #=T CELL(abcABC):=T 1.889726e+02=T 90.00000=T Traj:=T positionsangstrom=T Step:=T 0=T Bead:=T pbc="F F F"
C      -47.26670000     -35.59800000     -70.98390000
C      -46.30420000     -36.00380000     -71.99670000
C      -44.94170000     -36.16360000     -71.55150000
C      -44.61760000     -35.88710000     -70.21190000
C      -45.59010000     -35.56310000     -69.26030000
C      -46.93060000     -35.52790000     -69.63700000
H      -48.28490000     -35.55530000     -71.36710000
H      -44.18770000     -36.33450000     -72.27660000
H      -45.38140000     -35.12820000     -68.25220000
H      -47.61520000     -35.25100000     -68.94140000
C      -43.10510000     -36.07670000     -69.79330000
H      -42.64240000     -36.36900000     -70.67340000
H      -43.02150000     -36.90480000     -69.05800000
C      -46.56880000     -36.18000000     -73.48470000
H      -45.58280000     -36.29160000     -73.93370000
H      -47.07780000     -37.08820000     -73.78620000
S      -42.38110000     -34.47690000     -68.97550000
S      -47.60400000     -34.93240000     -74.29470000
C      -41.73700000     -33.31470000     -70.29170000
H      -41.43400000     -32.41410000     -69.77320000
H      -40.88410000     -33.80420000     -70.81140000
C      -46.33220000     -33.62400000     -74.71950000
H      -46.95740000     -32.72780000     -74.87870000
H      -45.76220000     -33.91480000     -75.55570000
C      -45.27240000     -33.24940000     -73.63510000
H      -44.95200000     -34.17080000     -73.15100000
H      -44.38910000     -32.82490000     -74.23400000
C      -42.85700000     -32.93430000     -71.30620000
H      -43.35400000     -33.79360000     -71.72800000
H      -42.43680000     -32.29600000     -72.10000000
C      -43.88860000     -31.91170000     -70.74750000
C      -43.60490000     -30.93960000     -69.80730000
C      -45.14890000     -31.70230000     -71.47370000
H      -42.76080000     -30.85250000     -69.18090000
C      -45.89150000     -30.68410000     -70.83260000
C      -45.87230000     -32.27060000     -72.61130000
C      -47.14260000     -31.69280000     -72.73130000
S      -45.06700000     -29.94570000     -69.51010000
S      -47.43830000     -30.47860000     -71.47420000
H      -47.93470000     -31.90560000     -73.44310000
