40
Properties=species:S:1:pos:R:3 #=T CELL(abcABC):=T 1.889726e+02=T 90.00000=T Traj:=T positionsangstrom=T Step:=T 0=T Bead:=T pbc="F F F"
C      -47.52480000     -35.94920000     -70.94950000
C      -46.60150000     -36.02530000     -71.97150000
C      -45.25220000     -36.12720000     -71.67740000
C      -44.74610000     -35.88110000     -70.39100000
C      -45.68720000     -35.56010000     -69.41080000
C      -47.07920000     -35.71780000     -69.64880000
H      -48.64840000     -35.95500000     -71.05970000
H      -44.48710000     -36.51190000     -72.37270000
H      -45.31250000     -35.24840000     -68.43860000
H      -47.72860000     -35.56870000     -68.85950000
C      -43.26100000     -35.96330000     -70.09010000
H      -42.61830000     -36.14820000     -70.91060000
H      -43.17440000     -36.81210000     -69.45620000
C      -47.05980000     -36.11900000     -73.42330000
H      -46.29800000     -36.51990000     -74.09630000
H      -47.91130000     -36.79650000     -73.48950000
S      -42.60960000     -34.49020000     -69.13530000
S      -47.62280000     -34.64160000     -74.16560000
C      -41.69960000     -33.45770000     -70.36820000
H      -41.19260000     -32.78890000     -69.71320000
H      -40.88030000     -33.96210000     -70.81370000
C      -46.24880000     -33.51870000     -74.72300000
H      -46.73130000     -32.57430000     -75.07260000
H      -45.66620000     -33.99750000     -75.53060000
C      -45.27240000     -33.27540000     -73.53590000
H      -45.18880000     -34.08380000     -72.79430000
H      -44.22590000     -33.12700000     -73.86900000
C      -42.48880000     -32.70960000     -71.41500000
H      -42.94020000     -33.45220000     -72.10710000
H      -41.80850000     -32.07000000     -71.88850000
C      -43.59690000     -31.87350000     -70.92190000
C      -43.44510000     -31.17280000     -69.74150000
C      -44.91500000     -31.63790000     -71.53340000
H      -42.47520000     -31.09460000     -69.06940000
C      -45.68810000     -30.76760000     -70.76860000
C      -45.67690000     -32.05360000     -72.72800000
C      -46.96840000     -31.57370000     -72.68010000
S      -44.88070000     -30.22460000     -69.23170000
S      -47.31770000     -30.43190000     -71.38520000
H      -47.60540000     -31.64130000     -73.56490000
