40
Properties=species:S:1:pos:R:3 #=T CELL(abcABC):=T 1.889726e+02=T 90.00000=T Traj:=T positionsangstrom=T Step:=T 0=T Bead:=T pbc="F F F"
C      -47.17870000     -34.71560000     -71.26820000
C      -46.26220000     -35.60650000     -71.83240000
C      -45.08550000     -35.90350000     -71.06960000
C      -44.79410000     -35.35860000     -69.84400000
C      -45.90090000     -34.69480000     -69.16400000
C      -46.94380000     -34.26520000     -70.01430000
H      -48.09680000     -34.46630000     -71.79660000
H      -44.25590000     -36.36500000     -71.65420000
H      -45.92410000     -34.35130000     -68.15760000
H      -47.77990000     -33.76570000     -69.49290000
C      -43.41390000     -35.71210000     -69.24300000
H      -42.80050000     -36.40560000     -69.89670000
H      -43.56010000     -36.15160000     -68.26040000
C      -46.44360000     -36.11290000     -73.29980000
H      -45.54890000     -36.52280000     -73.65970000
H      -47.18300000     -36.92780000     -73.43000000
S      -42.30270000     -34.22050000     -68.73600000
S      -47.06260000     -34.70250000     -74.40280000
C      -41.73320000     -33.30830000     -70.33370000
H      -41.49180000     -32.28300000     -70.04620000
H      -40.92160000     -33.78850000     -70.93470000
C      -45.53820000     -33.81350000     -75.00440000
H      -46.00510000     -33.10510000     -75.72680000
H      -44.79290000     -34.48460000     -75.53170000
C      -44.74780000     -33.03330000     -73.92280000
H      -43.91230000     -33.61600000     -73.50500000
H      -44.33290000     -32.31460000     -74.50530000
C      -42.87570000     -33.12690000     -71.26020000
H      -43.08350000     -34.14550000     -71.45930000
H      -42.69520000     -32.74840000     -72.27080000
C      -44.02650000     -32.34210000     -70.76870000
C      -44.14790000     -31.79120000     -69.52690000
C      -45.18040000     -32.03980000     -71.57610000
H      -43.47750000     -32.06100000     -68.66570000
C      -46.14260000     -31.26260000     -70.90080000
C      -45.67040000     -32.32720000     -72.92600000
C      -46.82610000     -31.71750000     -73.24810000
S      -45.61510000     -30.83090000     -69.27730000
S      -47.61250000     -30.97400000     -71.79270000
H      -47.45540000     -31.79160000     -74.09000000
