40
Properties=species:S:1:pos:R:3 #=T CELL(abcABC):=T 1.889726e+02=T 90.00000=T Traj:=T positionsangstrom=T Step:=T 0=T Bead:=T pbc="F F F"
C      -45.26630000     -37.12050000     -72.95990000
C      -44.91840000     -36.86220000     -71.60720000
C      -45.87230000     -36.52440000     -70.63120000
C      -47.21930000     -36.43520000     -71.03120000
C      -47.58390000     -36.69320000     -72.38210000
C      -46.63620000     -37.05230000     -73.31390000
H      -44.63030000     -37.46000000     -73.71630000
H      -45.51050000     -36.26860000     -69.62250000
H      -48.70440000     -36.69360000     -72.55620000
H      -46.99410000     -37.30340000     -74.28890000
C      -48.38160000     -36.10750000     -69.98810000
H      -48.47420000     -36.99520000     -69.33380000
H      -49.33500000     -35.87350000     -70.49380000
C      -43.47740000     -36.77880000     -71.11550000
H      -43.45420000     -36.42000000     -70.13520000
H      -43.08230000     -37.83450000     -71.15480000
S      -48.12050000     -34.60490000     -68.98070000
S      -42.38030000     -35.82040000     -72.22800000
C      -47.46510000     -33.35180000     -70.21270000
H      -47.07380000     -33.93660000     -71.07360000
H      -48.40220000     -32.78470000     -70.51240000
C      -43.39690000     -34.23310000     -72.39590000
H      -44.26020000     -34.28670000     -73.05620000
H      -42.68380000     -33.67850000     -73.03630000
C      -43.49550000     -33.44410000     -71.13840000
H      -44.36090000     -33.72670000     -70.51990000
H      -42.65010000     -33.60400000     -70.48470000
C      -46.52890000     -32.34440000     -69.51830000
H      -45.59020000     -32.85300000     -69.09670000
H      -47.12210000     -31.94210000     -68.68680000
C      -46.08560000     -31.19030000     -70.30620000
C      -46.81480000     -30.05370000     -70.45430000
C      -44.82820000     -31.04140000     -71.18950000
H      -47.63980000     -29.86600000     -69.80440000
C      -44.72070000     -29.82170000     -71.77320000
C      -43.60180000     -31.89270000     -71.47360000
C      -42.74410000     -31.19250000     -72.26940000
S      -45.98940000     -28.73690000     -71.31080000
S      -43.22750000     -29.44390000     -72.63030000
H      -41.82770000     -31.59490000     -72.75890000
