40
Properties=species:S:1:pos:R:3 #=T CELL(abcABC):=T 1.889726e+02=T 90.00000=T Traj:=T positionsangstrom=T Step:=T 0=T Bead:=T pbc="F F F"
C      -45.52310000     -36.85180000     -73.14410000
C      -45.19790000     -36.72530000     -71.73670000
C      -46.17010000     -36.54940000     -70.75860000
C      -47.50080000     -36.34260000     -71.17640000
C      -47.83860000     -36.52990000     -72.53910000
C      -46.84620000     -36.71200000     -73.53210000
H      -44.74420000     -37.27150000     -73.84640000
H      -45.77430000     -36.61900000     -69.73270000
H      -48.81260000     -36.31040000     -72.85110000
H      -47.14070000     -36.92770000     -74.59140000
C      -48.50220000     -35.87070000     -70.15270000
H      -49.01710000     -36.57650000     -69.44900000
H      -49.36870000     -35.55360000     -70.73350000
C      -43.78780000     -36.98580000     -71.29390000
H      -43.61480000     -36.63380000     -70.23330000
H      -43.47430000     -37.99680000     -71.26510000
S      -47.91100000     -34.55140000     -68.97910000
S      -42.58050000     -35.95140000     -72.32410000
C      -47.22640000     -33.28540000     -70.09580000
H      -46.82100000     -33.83550000     -70.95850000
H      -48.09350000     -32.61880000     -70.39420000
C      -43.33220000     -34.29370000     -72.63930000
H      -44.30030000     -34.36160000     -73.20190000
H      -42.56860000     -33.82640000     -73.31630000
C      -43.56000000     -33.49550000     -71.31570000
H      -44.30080000     -33.88900000     -70.63800000
H      -42.65280000     -33.58030000     -70.75330000
C      -46.25230000     -32.41760000     -69.29350000
H      -45.39180000     -32.98740000     -68.94430000
H      -46.83100000     -32.07800000     -68.38140000
C      -45.77990000     -31.19620000     -70.08330000
C      -46.47510000     -30.03060000     -69.98090000
C      -44.64570000     -31.10100000     -70.95530000
H      -47.50500000     -30.04780000     -69.52100000
C      -44.51360000     -29.76880000     -71.51190000
C      -43.66910000     -31.99770000     -71.61260000
C      -42.80090000     -31.30690000     -72.49130000
S      -45.84020000     -28.77190000     -70.97360000
S      -43.14520000     -29.58990000     -72.61710000
H      -42.07230000     -31.87010000     -73.08170000
