40
Properties=species:S:1:pos:R:3 #=T CELL(abcABC):=T 1.889726e+02=T 90.00000=T Traj:=T positionsangstrom=T Step:=T 0=T Bead:=T pbc="F F F"
C      -46.16780000     -36.04780000     -73.76980000
C      -45.78370000     -36.47780000     -72.49480000
C      -46.58870000     -36.25330000     -71.39740000
C      -47.74270000     -35.47800000     -71.55070000
C      -48.05980000     -34.96960000     -72.83580000
C      -47.29880000     -35.32330000     -73.89480000
H      -45.64130000     -36.33880000     -74.71520000
H      -46.27440000     -36.49170000     -70.39300000
H      -48.86630000     -34.22380000     -72.87990000
H      -47.49060000     -34.84500000     -74.81210000
C      -48.71800000     -35.26110000     -70.43440000
H      -49.11890000     -36.17670000     -70.09660000
H      -49.54230000     -34.63320000     -70.80880000
C      -44.59600000     -37.33370000     -72.33960000
H      -44.71170000     -38.25330000     -71.76480000
H      -44.16190000     -37.55250000     -73.29160000
S      -48.01260000     -34.39720000     -68.87940000
S      -43.14370000     -36.56920000     -71.39030000
C      -47.24030000     -32.91280000     -69.77990000
H      -47.23380000     -33.24630000     -70.80400000
H      -47.95110000     -32.06970000     -69.67860000
C      -43.06430000     -34.86440000     -72.23300000
H      -43.42540000     -35.07320000     -73.25730000
H      -42.10110000     -34.41630000     -72.28420000
C      -44.03280000     -33.89640000     -71.49730000
H      -44.99180000     -34.33930000     -71.61940000
H      -43.77820000     -33.89610000     -70.44070000
C      -45.93300000     -32.53130000     -69.12530000
H      -45.18890000     -33.35090000     -69.04000000
H      -46.09640000     -32.25710000     -68.08190000
C      -45.15520000     -31.32560000     -69.77700000
C      -45.29860000     -30.07160000     -69.24310000
C      -44.42230000     -31.43890000     -70.99240000
H      -45.85010000     -29.74600000     -68.34890000
C      -44.06020000     -30.13170000     -71.45990000
C      -43.97210000     -32.42160000     -71.96580000
C      -43.29300000     -31.88480000     -73.08030000
S      -44.37490000     -28.91090000     -70.18790000
S      -43.18220000     -30.16180000     -72.96980000
H      -42.83740000     -32.51580000     -73.83050000
