40
Properties=species:S:1:pos:R:3 #=T CELL(abcABC):=T 1.889726e+02=T 90.00000=T Traj:=T positionsangstrom=T Step:=T 0=T Bead:=T pbc="F F F"
C      -46.23230000     -35.83850000     -74.02660000
C      -46.04880000     -36.45840000     -72.79210000
C      -46.85820000     -36.17330000     -71.73710000
C      -47.87210000     -35.20520000     -71.82700000
C      -47.99720000     -34.50190000     -73.01800000
C      -47.22270000     -34.83330000     -74.13840000
H      -45.76160000     -36.25270000     -74.96130000
H      -46.55720000     -36.55270000     -70.78640000
H      -48.67700000     -33.62430000     -73.10100000
H      -47.36360000     -34.18370000     -74.94900000
C      -48.67850000     -34.94620000     -70.58050000
H      -49.24660000     -35.89170000     -70.39860000
H      -49.40550000     -34.13890000     -70.67990000
C      -44.88570000     -37.43480000     -72.54530000
H      -45.15570000     -38.35790000     -72.00350000
H      -44.24160000     -37.72180000     -73.37200000
S      -47.60970000     -34.49510000     -69.13150000
S      -43.72980000     -36.72370000     -71.18980000
C      -47.01550000     -32.92020000     -69.82620000
H      -46.56020000     -33.10700000     -70.79080000
H      -47.89110000     -32.22900000     -69.95550000
C      -43.21630000     -35.07380000     -71.66500000
H      -43.10170000     -35.05770000     -72.78450000
H      -42.23890000     -34.98020000     -71.21200000
C      -44.20370000     -34.03020000     -71.18060000
H      -45.17680000     -34.14910000     -71.67360000
H      -44.35530000     -34.02280000     -70.10170000
C      -45.95720000     -32.28100000     -68.87030000
H      -45.38640000     -33.12780000     -68.48410000
H      -46.49570000     -31.87300000     -68.02430000
C      -45.24020000     -31.22580000     -69.66170000
C      -45.37060000     -29.89300000     -69.44580000
C      -44.28780000     -31.47090000     -70.80760000
H      -45.98650000     -29.34690000     -68.65600000
C      -43.81130000     -30.27820000     -71.29590000
C      -43.84170000     -32.62080000     -71.53060000
C      -43.01580000     -32.26180000     -72.55380000
S      -44.37440000     -28.83910000     -70.52150000
S      -42.85150000     -30.48350000     -72.75260000
H      -42.45370000     -32.84970000     -73.25920000
