40
Properties=species:S:1:pos:R:3 #=T CELL(abcABC):=T 1.889726e+02=T 90.00000=T Traj:=T positionsangstrom=T Step:=T 0=T Bead:=T pbc="F F F"
C      -46.12880000     -35.60130000     -74.01170000
C      -45.97160000     -36.43330000     -72.83590000
C      -46.80670000     -36.21950000     -71.76130000
C      -47.89480000     -35.33900000     -71.79690000
C      -47.96930000     -34.49540000     -72.95910000
C      -47.18170000     -34.68270000     -74.09330000
H      -45.28780000     -35.59510000     -74.73790000
H      -46.67840000     -36.80530000     -70.83570000
H      -48.83600000     -33.81950000     -73.10140000
H      -47.22170000     -34.02520000     -74.92690000
C      -48.71470000     -34.99660000     -70.56950000
H      -49.23640000     -35.85500000     -70.28240000
H      -49.49680000     -34.19830000     -70.79860000
C      -44.77690000     -37.38260000     -72.70510000
H      -45.13500000     -38.43610000     -72.60290000
H      -44.20520000     -37.20990000     -73.61400000
S      -47.69170000     -34.45870000     -69.08050000
S      -43.87000000     -36.94520000     -71.17350000
C      -47.18010000     -32.81570000     -69.69790000
H      -46.89150000     -32.85210000     -70.80900000
H      -48.00190000     -32.10410000     -69.51810000
C      -43.35950000     -35.23750000     -71.67610000
H      -43.24110000     -35.03720000     -72.70220000
H      -42.36640000     -35.14360000     -71.21810000
C      -44.19290000     -34.02950000     -71.07550000
H      -45.28780000     -34.16320000     -71.33400000
H      -44.13860000     -34.09180000     -69.99260000
C      -45.93420000     -32.26740000     -68.87680000
H      -45.15290000     -32.97170000     -68.61000000
H      -46.26410000     -31.80560000     -67.96130000
C      -45.16170000     -31.21150000     -69.71950000
C      -45.30730000     -29.85570000     -69.47280000
C      -44.37230000     -31.45050000     -70.96040000
H      -45.81040000     -29.40560000     -68.59060000
C      -43.82610000     -30.19950000     -71.39470000
C      -43.83760000     -32.67420000     -71.57450000
C      -42.99870000     -32.25940000     -72.60730000
S      -44.38950000     -28.76120000     -70.54900000
S      -42.68070000     -30.52110000     -72.69390000
H      -42.36050000     -32.86570000     -73.28080000
