40
Properties=species:S:1:pos:R:3 #=T CELL(abcABC):=T 1.889726e+02=T 90.00000=T Traj:=T positionsangstrom=T Step:=T 0=T Bead:=T pbc="F F F"
C      -45.84690000     -31.44900000     -67.84390000
C      -45.48630000     -30.82370000     -69.09890000
C      -46.49760000     -30.69870000     -70.04980000
C      -47.73380000     -31.35720000     -69.91240000
C      -47.90890000     -32.18390000     -68.78930000
C      -47.02820000     -32.12560000     -67.69420000
H      -45.13230000     -31.40370000     -67.05750000
H      -46.31450000     -30.14200000     -70.93690000
H      -48.77570000     -32.83070000     -68.64540000
H      -47.17590000     -32.75730000     -66.85590000
C      -48.68520000     -31.34060000     -71.08440000
H      -49.41480000     -30.49390000     -71.12080000
H      -49.48430000     -32.12310000     -70.96890000
C      -44.12830000     -30.28340000     -69.18620000
H      -44.14250000     -29.38860000     -69.89380000
H      -43.78550000     -29.90940000     -68.14520000
S      -47.77820000     -31.57980000     -72.64540000
S      -42.91510000     -31.60290000     -69.81260000
C      -47.49320000     -33.43400000     -72.41060000
H      -46.90940000     -33.60510000     -71.52460000
H      -48.40910000     -33.95330000     -72.13020000
C      -42.97500000     -31.52940000     -71.62610000
H      -41.87350000     -31.64450000     -71.92930000
H      -43.35070000     -30.55410000     -71.89940000
C      -43.94860000     -32.52150000     -72.26370000
H      -45.02310000     -32.23600000     -72.10830000
H      -43.80600000     -32.34100000     -73.37260000
C      -46.79210000     -33.96110000     -73.60540000
H      -46.19230000     -33.23920000     -74.10300000
H      -47.47600000     -34.26220000     -74.39280000
C      -45.92040000     -35.11690000     -73.18710000
C      -46.39040000     -36.34200000     -73.49200000
C      -44.60410000     -35.04750000     -72.58890000
H      -47.31990000     -36.58650000     -74.02140000
C      -44.08810000     -36.29130000     -72.48490000
C      -43.74560000     -34.02270000     -72.11460000
C      -42.64330000     -34.57010000     -71.51550000
S      -45.25910000     -37.56230000     -72.91620000
S      -42.54280000     -36.29940000     -71.58270000
H      -41.79030000     -34.09020000     -71.08010000
