40
Properties=species:S:1:pos:R:3 #=T CELL(abcABC):=T 1.889726e+02=T 90.00000=T Traj:=T positionsangstrom=T Step:=T 0=T Bead:=T pbc="F F F"
C      -46.15860000     -36.20750000     -73.66030000
C      -45.78160000     -36.62780000     -72.35840000
C      -46.59790000     -36.30450000     -71.28050000
C      -47.83050000     -35.60140000     -71.50730000
C      -48.15530000     -35.25260000     -72.88150000
C      -47.31000000     -35.55430000     -73.97350000
H      -45.53830000     -36.45440000     -74.54780000
H      -46.46080000     -36.66820000     -70.29340000
H      -49.12810000     -34.88920000     -73.13480000
H      -47.63560000     -35.31990000     -74.97240000
C      -48.70140000     -35.26060000     -70.32150000
H      -49.03810000     -36.21470000     -69.78810000
H      -49.55750000     -34.69450000     -70.69420000
C      -44.57190000     -37.43030000     -72.15190000
H      -44.58280000     -38.33130000     -71.46580000
H      -44.38420000     -37.91590000     -73.13220000
S      -47.98350000     -34.21410000     -68.98130000
S      -43.04790000     -36.45450000     -71.61380000
C      -47.13020000     -32.79300000     -69.78420000
H      -46.99910000     -33.07620000     -70.82790000
H      -47.80600000     -31.91550000     -69.79240000
C      -43.23620000     -34.87410000     -72.49180000
H      -43.60700000     -34.98600000     -73.54570000
H      -42.26360000     -34.41760000     -72.54440000
C      -44.17320000     -33.85740000     -71.66820000
H      -45.27250000     -33.96540000     -71.67920000
H      -44.00280000     -34.16630000     -70.62880000
C      -45.75540000     -32.54190000     -69.06910000
H      -45.23530000     -33.47770000     -69.23920000
H      -45.99910000     -32.43940000     -68.05180000
C      -45.08420000     -31.37250000     -69.66760000
C      -45.16960000     -30.09720000     -69.14890000
C      -44.40390000     -31.38860000     -70.92660000
H      -45.79850000     -29.84980000     -68.24950000
C      -44.09450000     -30.08200000     -71.40140000
C      -43.97610000     -32.40910000     -71.90350000
C      -43.28160000     -31.85190000     -72.98340000
S      -44.47730000     -28.86670000     -70.22350000
S      -43.18120000     -30.11310000     -72.86360000
H      -42.87790000     -32.55020000     -73.69240000
