40
Properties=species:S:1:pos:R:3 #=T CELL(abcABC):=T 1.889726e+02=T 90.00000=T Traj:=T positionsangstrom=T Step:=T 0=T Bead:=T pbc="F F F"
C      -46.14220000     -35.52790000     -73.93670000
C      -46.03150000     -36.42320000     -72.80050000
C      -47.03200000     -36.30520000     -71.86580000
C      -47.96270000     -35.29580000     -71.81250000
C      -47.96690000     -34.36310000     -72.88600000
C      -47.08590000     -34.54980000     -73.91610000
H      -45.50220000     -35.58950000     -74.76300000
H      -47.07540000     -37.02030000     -71.02780000
H      -48.50370000     -33.46940000     -72.69870000
H      -47.22680000     -33.91810000     -74.79560000
C      -48.82300000     -35.05790000     -70.57420000
H      -49.16330000     -35.96920000     -70.08200000
H      -49.71150000     -34.43510000     -70.77390000
C      -44.90580000     -37.30620000     -72.66530000
H      -45.13170000     -38.31220000     -72.43210000
H      -44.41580000     -37.43860000     -73.65480000
S      -47.78570000     -34.31910000     -69.18490000
S      -43.73120000     -36.85750000     -71.28860000
C      -47.30810000     -32.63490000     -69.78940000
H      -47.10270000     -32.63380000     -70.82580000
H      -48.14210000     -31.94320000     -69.68450000
C      -43.15680000     -35.11650000     -71.68060000
H      -43.15870000     -35.00110000     -72.77860000
H      -42.08100000     -35.08920000     -71.32820000
C      -44.07200000     -34.10280000     -70.98260000
H      -45.05620000     -34.27570000     -71.37330000
H      -44.22000000     -34.14480000     -69.90710000
C      -46.01680000     -32.25070000     -68.92690000
H      -45.52770000     -33.26120000     -68.75490000
H      -46.37150000     -31.98350000     -67.93000000
C      -45.19080000     -31.22940000     -69.72540000
C      -45.31730000     -29.85650000     -69.48560000
C      -44.26860000     -31.50560000     -70.77410000
H      -46.02740000     -29.37480000     -68.84740000
C      -43.78430000     -30.33530000     -71.37770000
C      -43.76230000     -32.73740000     -71.35050000
C      -42.83440000     -32.41690000     -72.38320000
S      -44.34120000     -28.84610000     -70.64760000
S      -42.72540000     -30.69610000     -72.70460000
H      -42.18240000     -33.11300000     -72.99520000
