40
Properties=species:S:1:pos:R:3 #=T CELL(abcABC):=T 1.889726e+02=T 90.00000=T Traj:=T positionsangstrom=T Step:=T 0=T Bead:=T pbc="F F F"
C      -46.16620000     -36.47270000     -73.61820000
C      -45.83480000     -36.78350000     -72.30430000
C      -46.64650000     -36.42770000     -71.17230000
C      -47.76630000     -35.60770000     -71.41520000
C      -48.04430000     -35.23800000     -72.73960000
C      -47.23200000     -35.63740000     -73.79600000
H      -45.62800000     -36.75220000     -74.49180000
H      -46.12740000     -36.64930000     -70.19620000
H      -48.72670000     -34.43350000     -72.90760000
H      -47.49260000     -35.26530000     -74.83640000
C      -48.81110000     -35.17460000     -70.40800000
H      -49.33660000     -36.00240000     -69.95540000
H      -49.66010000     -34.65230000     -70.84660000
C      -44.52240000     -37.49740000     -71.99170000
H      -44.62240000     -37.88550000     -71.02370000
H      -44.39410000     -38.26730000     -72.73580000
S      -48.02830000     -34.24040000     -68.98840000
S      -42.97190000     -36.46040000     -71.89480000
C      -47.07130000     -32.88550000     -69.78670000
H      -46.70970000     -33.19690000     -70.76860000
H      -47.70160000     -32.01400000     -69.81770000
C      -43.33660000     -34.72960000     -72.58500000
H      -43.71400000     -34.88720000     -73.58120000
H      -42.29900000     -34.32380000     -72.58440000
C      -44.23370000     -33.81740000     -71.72850000
H      -45.23790000     -34.01330000     -72.14770000
H      -44.18250000     -33.99040000     -70.67560000
C      -45.82110000     -32.52770000     -68.96160000
H      -45.12340000     -33.38500000     -68.71850000
H      -46.11020000     -32.15860000     -67.91840000
C      -45.04500000     -31.36730000     -69.69530000
C      -45.20090000     -30.09110000     -69.16730000
C      -44.35180000     -31.36450000     -70.93700000
H      -45.63840000     -29.78280000     -68.22940000
C      -43.98140000     -30.10530000     -71.29600000
C      -43.95950000     -32.34360000     -71.91550000
C      -43.29760000     -31.79910000     -72.99450000
S      -44.51450000     -28.84630000     -70.19950000
S      -43.22720000     -30.00730000     -72.87930000
H      -42.89710000     -32.33680000     -73.89150000
