40
Properties=species:S:1:pos:R:3 #=T CELL(abcABC):=T 1.889726e+02=T 90.00000=T Traj:=T positionsangstrom=T Step:=T 0=T Bead:=T pbc="F F F"
C      -45.94370000     -36.40100000     -73.51100000
C      -45.73670000     -36.69840000     -72.20600000
C      -46.59890000     -36.25100000     -71.13480000
C      -47.79900000     -35.57860000     -71.44000000
C      -47.96850000     -35.20470000     -72.81790000
C      -47.08430000     -35.63050000     -73.83410000
H      -45.27550000     -36.78350000     -74.23430000
H      -46.33270000     -36.60300000     -70.11520000
H      -48.89100000     -34.82060000     -73.29030000
H      -47.24290000     -35.47240000     -74.87120000
C      -48.74890000     -35.12930000     -70.38360000
H      -49.32270000     -35.99150000     -70.02950000
H      -49.51100000     -34.37250000     -70.74740000
C      -44.43100000     -37.41900000     -71.77200000
H      -44.55130000     -37.64940000     -70.65100000
H      -44.20070000     -38.38110000     -72.26120000
S      -47.98070000     -34.42600000     -68.93040000
S      -42.87760000     -36.40910000     -72.00250000
C      -47.13430000     -32.99740000     -69.73150000
H      -46.95970000     -33.18200000     -70.83350000
H      -47.85570000     -32.15330000     -69.78260000
C      -43.40940000     -34.75740000     -72.67220000
H      -44.03790000     -34.73490000     -73.54270000
H      -42.44860000     -34.35600000     -72.98770000
C      -44.03560000     -33.84050000     -71.62390000
H      -45.00230000     -34.25430000     -71.36050000
H      -43.40190000     -33.98320000     -70.70630000
C      -45.85130000     -32.57940000     -69.07300000
H      -45.20320000     -33.41700000     -69.07370000
H      -45.91380000     -32.31960000     -68.03600000
C      -45.28730000     -31.31340000     -69.76230000
C      -45.35320000     -30.07290000     -69.18240000
C      -44.60780000     -31.29020000     -71.05910000
H      -45.76730000     -29.92480000     -68.22100000
C      -44.13490000     -30.05230000     -71.37290000
C      -44.09960000     -32.37700000     -71.92590000
C      -43.43780000     -31.75600000     -72.98310000
S      -44.47460000     -28.82290000     -70.14990000
S      -43.30520000     -30.07110000     -72.91300000
H      -42.93790000     -32.25180000     -73.82650000
