40
Properties=species:S:1:pos:R:3 #=T CELL(abcABC):=T 1.889726e+02=T 90.00000=T Traj:=T positionsangstrom=T Step:=T 0=T Bead:=T pbc="F F F"
C      -46.59980000     -35.32810000     -74.25550000
C      -46.48410000     -36.09560000     -73.11930000
C      -47.30780000     -35.88400000     -71.99500000
C      -48.25590000     -34.85300000     -71.96360000
C      -48.46100000     -34.16380000     -73.14950000
C      -47.69570000     -34.38200000     -74.24490000
H      -45.98060000     -35.44180000     -75.14940000
H      -47.20430000     -36.53280000     -71.11550000
H      -49.28860000     -33.39730000     -73.29470000
H      -47.91900000     -33.92380000     -75.19730000
C      -49.00610000     -34.50170000     -70.62010000
H      -49.60500000     -35.39140000     -70.37590000
H      -49.68510000     -33.62120000     -70.72270000
C      -45.44970000     -37.24490000     -72.99710000
H      -46.04710000     -38.10220000     -72.70920000
H      -45.04690000     -37.41440000     -73.96330000
S      -47.85100000     -34.13230000     -69.24370000
S      -44.21820000     -36.94650000     -71.71570000
C      -46.97010000     -32.64240000     -69.89780000
H      -46.57790000     -32.74550000     -70.91820000
H      -47.67010000     -31.81040000     -70.00320000
C      -43.61360000     -35.26970000     -72.10590000
H      -43.85190000     -34.93820000     -73.15240000
H      -42.45220000     -35.37230000     -72.12000000
C      -44.05880000     -34.26250000     -71.11220000
H      -45.21190000     -34.35360000     -70.99450000
H      -43.80790000     -34.51940000     -70.08860000
C      -45.93670000     -32.27690000     -68.85430000
H      -45.36220000     -33.16190000     -68.44640000
H      -46.27700000     -31.80910000     -67.91690000
C      -44.85170000     -31.35780000     -69.44660000
C      -44.79520000     -30.05070000     -69.10370000
C      -43.98140000     -31.72130000     -70.58060000
H      -45.36400000     -29.60630000     -68.33340000
C      -43.24770000     -30.62020000     -70.89440000
C      -43.66960000     -32.84950000     -71.29750000
C      -42.78610000     -32.57750000     -72.34980000
S      -43.52590000     -29.14390000     -70.00670000
S      -42.32210000     -30.89220000     -72.37190000
H      -42.45530000     -33.35300000     -73.09570000
