40
Properties=species:S:1:pos:R:3 #=T CELL(abcABC):=T 1.889726e+02=T 90.00000=T Traj:=T positionsangstrom=T Step:=T 0=T Bead:=T pbc="F F F"
C      -46.08670000     -35.33860000     -73.87960000
C      -46.06740000     -36.21090000     -72.86060000
C      -47.04770000     -36.11210000     -71.83780000
C      -47.97110000     -35.04530000     -71.81720000
C      -47.94530000     -34.12230000     -72.84990000
C      -47.03010000     -34.29700000     -73.93800000
H      -45.43630000     -35.57110000     -74.73510000
H      -46.92620000     -36.73330000     -70.97370000
H      -48.64300000     -33.27520000     -72.81430000
H      -46.97600000     -33.58410000     -74.74120000
C      -48.91550000     -34.92110000     -70.67500000
H      -49.26660000     -35.94370000     -70.46000000
H      -49.75440000     -34.33350000     -71.10480000
C      -45.03360000     -37.32960000     -72.71710000
H      -45.58860000     -38.21660000     -72.49110000
H      -44.51530000     -37.47260000     -73.63350000
S      -48.27000000     -34.17310000     -69.08140000
S      -43.79420000     -36.97360000     -71.41270000
C      -47.14770000     -32.93710000     -69.92580000
H      -46.54900000     -33.38100000     -70.72260000
H      -47.79250000     -32.18890000     -70.36170000
C      -43.20040000     -35.28700000     -71.77630000
H      -43.30530000     -35.05530000     -72.83200000
H      -42.16370000     -35.29380000     -71.43980000
C      -43.93440000     -34.23370000     -70.89280000
H      -45.02990000     -34.43580000     -70.92790000
H      -43.53400000     -34.30910000     -69.86290000
C      -46.14950000     -32.26080000     -68.98140000
H      -45.62700000     -33.09290000     -68.53570000
H      -46.72390000     -31.72840000     -68.18260000
C      -45.23570000     -31.23920000     -69.84100000
C      -45.44410000     -29.90820000     -69.75940000
C      -44.24760000     -31.58510000     -70.85160000
H      -46.12890000     -29.41430000     -69.02910000
C      -43.68970000     -30.43320000     -71.36580000
C      -43.62950000     -32.79560000     -71.34480000
C      -42.55830000     -32.48790000     -72.20220000
S      -44.34880000     -28.92320000     -70.69690000
S      -42.31520000     -30.81570000     -72.38860000
H      -41.93420000     -33.24420000     -72.67820000
