40
Properties=species:S:1:pos:R:3 #=T CELL(abcABC):=T 1.889726e+02=T 90.00000=T Traj:=T positionsangstrom=T Step:=T 0=T Bead:=T pbc="F F F"
C      -46.57170000     -35.21930000     -73.94890000
C      -46.35350000     -36.10090000     -72.85350000
C      -47.18600000     -35.82720000     -71.76450000
C      -48.20530000     -34.85950000     -71.70480000
C      -48.33680000     -33.99070000     -72.84440000
C      -47.52480000     -34.24970000     -73.94270000
H      -46.00860000     -35.33040000     -74.86370000
H      -46.92770000     -36.41000000     -70.87520000
H      -49.06390000     -33.21870000     -72.90990000
H      -47.50550000     -33.47850000     -74.78390000
C      -49.15160000     -34.73230000     -70.57410000
H      -49.62360000     -35.68540000     -70.41640000
H      -49.96980000     -34.08250000     -70.84840000
C      -45.29450000     -37.12970000     -72.83380000
H      -45.72330000     -38.05530000     -72.61630000
H      -44.84160000     -37.16100000     -73.84920000
S      -48.33060000     -34.11950000     -69.08050000
S      -43.99420000     -36.91810000     -71.52330000
C      -47.24450000     -32.79650000     -69.91430000
H      -47.03510000     -33.13980000     -70.89390000
H      -47.86670000     -31.87800000     -70.00930000
C      -43.07080000     -35.36250000     -71.89450000
H      -43.20310000     -35.12530000     -73.01220000
H      -42.02540000     -35.41650000     -71.54180000
C      -43.85270000     -34.27050000     -71.11510000
H      -44.90870000     -34.36330000     -71.40520000
H      -43.83960000     -34.45970000     -70.06330000
C      -45.97400000     -32.44680000     -69.20520000
H      -45.31210000     -33.27630000     -68.95810000
H      -46.13700000     -32.01140000     -68.20500000
C      -45.17270000     -31.41430000     -69.95630000
C      -45.23600000     -30.09440000     -69.75200000
C      -44.06050000     -31.71170000     -70.84190000
H      -45.96210000     -29.53950000     -69.04930000
C      -43.39130000     -30.54330000     -71.31890000
C      -43.38640000     -32.90450000     -71.31500000
C      -42.21820000     -32.56930000     -71.99640000
S      -44.00730000     -29.15740000     -70.53040000
S      -42.01020000     -30.85340000     -72.30990000
H      -41.53010000     -33.29250000     -72.43620000
