40
Properties=species:S:1:pos:R:3 #=T CELL(abcABC):=T 1.889726e+02=T 90.00000=T Traj:=T positionsangstrom=T Step:=T 0=T Bead:=T pbc="F F F"
C      -46.84190000     -35.59800000     -74.20470000
C      -46.56850000     -36.20050000     -72.91340000
C      -47.41240000     -35.80750000     -71.85430000
C      -48.37480000     -34.78120000     -71.95150000
C      -48.41840000     -34.02140000     -73.16260000
C      -47.58400000     -34.39190000     -74.23160000
H      -46.30920000     -35.87200000     -75.11620000
H      -47.22310000     -36.36510000     -70.99550000
H      -49.14710000     -33.15230000     -73.36710000
H      -47.68220000     -33.94820000     -75.21310000
C      -49.21330000     -34.44160000     -70.71980000
H      -49.81730000     -35.30770000     -70.42090000
H      -50.00060000     -33.68320000     -70.79360000
C      -45.51400000     -37.21930000     -73.03020000
H      -45.83040000     -38.28290000     -72.87880000
H      -45.15480000     -37.13970000     -74.11420000
S      -48.03750000     -34.02640000     -69.30550000
S      -44.06770000     -37.07540000     -71.84170000
C      -46.96940000     -32.60940000     -69.80560000
H      -46.52110000     -32.62650000     -70.83440000
H      -47.64200000     -31.75720000     -69.77160000
C      -43.43310000     -35.27000000     -72.00320000
H      -43.54000000     -35.00740000     -73.04700000
H      -42.39950000     -35.40200000     -71.75710000
C      -44.10240000     -34.24720000     -71.11480000
H      -45.13160000     -34.31850000     -71.27310000
H      -43.82820000     -34.44820000     -70.11440000
C      -45.75870000     -32.48400000     -68.83910000
H      -45.40250000     -33.49040000     -68.80980000
H      -46.10950000     -32.20320000     -67.87800000
C      -44.77970000     -31.41800000     -69.38330000
C      -44.55360000     -30.17320000     -68.92750000
C      -43.99110000     -31.63990000     -70.64280000
H      -45.01020000     -29.77200000     -67.99360000
C      -43.26410000     -30.50920000     -71.01300000
C      -43.67160000     -32.84060000     -71.40600000
C      -42.74920000     -32.48620000     -72.41510000
S      -43.46880000     -29.13850000     -69.92520000
S      -42.35400000     -30.83630000     -72.40600000
H      -42.37330000     -33.24830000     -73.15110000
