40
Properties=species:S:1:pos:R:3 #=T CELL(abcABC):=T 1.889726e+02=T 90.00000=T Traj:=T positionsangstrom=T Step:=T 0=T Bead:=T pbc="F F F"
C      -43.34780000     -33.10790000     -69.54010000
C      -44.60740000     -32.51600000     -69.24910000
C      -45.70700000     -33.43920000     -69.12850000
C      -45.54030000     -34.80980000     -69.46190000
C      -44.26030000     -35.31040000     -69.76530000
C      -43.18140000     -34.44590000     -69.79010000
H      -42.46870000     -32.49510000     -69.48080000
H      -46.80110000     -33.07150000     -69.04290000
H      -44.13900000     -36.36930000     -69.81230000
H      -42.14820000     -34.88730000     -69.97380000
C      -46.70550000     -35.77730000     -69.48640000
H      -46.75290000     -36.37560000     -68.62160000
H      -46.59780000     -36.46900000     -70.31160000
C      -44.61910000     -31.04320000     -68.79180000
H      -45.58180000     -30.75060000     -68.46820000
H      -43.83870000     -30.94840000     -67.93050000
S      -48.31950000     -34.98330000     -69.50390000
S      -44.13420000     -29.80560000     -70.14890000
C      -48.65570000     -34.88230000     -71.23990000
H      -48.46750000     -35.92610000     -71.71130000
H      -49.67110000     -34.61420000     -71.30390000
C      -45.65830000     -29.82980000     -71.13720000
H      -45.42240000     -29.02210000     -71.82540000
H      -46.40340000     -29.64940000     -70.32610000
C      -46.07990000     -31.05480000     -71.93260000
H      -46.52860000     -31.70770000     -71.17180000
H      -46.79090000     -30.75550000     -72.67650000
C      -47.86120000     -33.85640000     -72.09960000
H      -47.83980000     -32.97580000     -71.42310000
H      -48.54870000     -33.57750000     -72.86750000
C      -46.54000000     -34.23110000     -72.66940000
C      -46.32220000     -35.48300000     -73.20910000
C      -45.35250000     -33.41910000     -72.80460000
H      -47.02940000     -36.25700000     -73.05460000
C      -44.29480000     -34.12510000     -73.40240000
C      -45.06960000     -31.98490000     -72.58430000
C      -43.78310000     -31.67020000     -72.98660000
S      -44.66550000     -35.77830000     -73.84140000
S      -42.93780000     -33.05000000     -73.57260000
H      -43.25730000     -30.75420000     -72.74400000
