40
Properties=species:S:1:pos:R:3 #=T CELL(abcABC):=T 1.889726e+02=T 90.00000=T Traj:=T positionsangstrom=T Step:=T 0=T Bead:=T pbc="F F F"
C      -44.09360000     -31.66860000     -68.47300000
C      -44.37750000     -33.02020000     -68.07940000
C      -43.55760000     -34.06880000     -68.62920000
C      -42.49770000     -33.75760000     -69.46800000
C      -42.21640000     -32.40830000     -69.79540000
C      -42.99600000     -31.39320000     -69.22850000
H      -44.43530000     -30.78640000     -67.89590000
H      -43.73990000     -35.04870000     -68.28170000
H      -41.32380000     -32.09030000     -70.32220000
H      -42.78300000     -30.36290000     -69.54300000
C      -41.59020000     -34.85960000     -69.95940000
H      -41.47240000     -35.48830000     -69.08130000
H      -40.58390000     -34.51720000     -70.27250000
C      -45.46500000     -33.48210000     -67.24140000
H      -45.06050000     -34.25680000     -66.49840000
H      -46.03790000     -32.67220000     -66.80150000
S      -42.46400000     -36.01690000     -71.23940000
S      -46.85660000     -34.28440000     -68.22590000
C      -43.25310000     -34.87590000     -72.47510000
H      -42.54130000     -34.03400000     -72.52180000
H      -43.31990000     -35.52100000     -73.35480000
C      -47.24300000     -33.11130000     -69.49880000
H      -46.33140000     -32.60100000     -69.69540000
H      -48.00900000     -32.37180000     -69.22380000
C      -47.70830000     -33.89430000     -70.81320000
H      -47.03640000     -34.71900000     -70.98120000
H      -48.65590000     -34.47160000     -70.57480000
C      -44.71230000     -34.51190000     -72.22320000
H      -44.85530000     -34.13000000     -71.16640000
H      -45.31970000     -35.42690000     -72.16800000
C      -45.33200000     -33.53930000     -73.13520000
C      -44.68890000     -33.20940000     -74.30150000
C      -46.67190000     -33.08280000     -73.07240000
H      -43.77800000     -33.63670000     -74.60700000
C      -47.00820000     -32.35840000     -74.21200000
C      -47.72730000     -33.13230000     -72.08020000
C      -48.79990000     -32.39420000     -72.47740000
S      -45.68010000     -32.23190000     -75.27720000
S      -48.65410000     -31.66980000     -74.11400000
H      -49.66590000     -32.26420000     -71.86370000
