40
Properties=species:S:1:pos:R:3 #=T CELL(abcABC):=T 1.889726e+02=T 90.00000=T Traj:=T positionsangstrom=T Step:=T 0=T Bead:=T pbc="F F F"
C      -44.14500000     -31.37180000     -68.61100000
C      -44.46840000     -32.67920000     -68.35990000
C      -43.58180000     -33.65860000     -68.77430000
C      -42.47660000     -33.39540000     -69.61420000
C      -42.15670000     -32.04100000     -69.86240000
C      -42.98420000     -31.09610000     -69.34340000
H      -44.58070000     -30.47700000     -68.15810000
H      -43.92130000     -34.73260000     -68.60940000
H      -41.47110000     -31.75860000     -70.59440000
H      -42.65930000     -30.10530000     -69.28340000
C      -41.65230000     -34.55400000     -70.09890000
H      -41.12370000     -35.16000000     -69.29640000
H      -40.80270000     -34.17890000     -70.70040000
C      -45.63100000     -32.92930000     -67.40100000
H      -45.22920000     -33.58050000     -66.61450000
H      -46.10360000     -32.04280000     -66.91060000
S      -42.40720000     -35.89490000     -71.08160000
S      -46.91060000     -34.15950000     -68.14250000
C      -43.13020000     -34.95320000     -72.43490000
H      -42.54890000     -34.02770000     -72.51610000
H      -42.92040000     -35.47060000     -73.39360000
C      -46.86610000     -33.49900000     -69.80860000
H      -45.82520000     -33.25570000     -70.14630000
H      -47.36510000     -32.54170000     -69.85880000
C      -47.54050000     -34.46700000     -70.84780000
H      -46.82810000     -35.32460000     -71.08400000
H      -48.50180000     -34.83840000     -70.50220000
C      -44.61560000     -34.73310000     -72.27440000
H      -44.74980000     -34.55920000     -71.20510000
H      -45.22180000     -35.67430000     -72.48980000
C      -45.22660000     -33.63470000     -73.14660000
C      -44.60080000     -32.86510000     -74.04620000
C      -46.66700000     -33.45500000     -73.07520000
H      -43.50920000     -32.63780000     -74.12760000
C      -47.09350000     -32.67230000     -74.15490000
C      -47.72290000     -33.75620000     -72.18230000
C      -48.86760000     -33.09790000     -72.48980000
S      -45.75060000     -31.95550000     -75.05870000
S      -48.83420000     -32.18830000     -73.98320000
H      -49.81140000     -33.10160000     -71.90950000
