40
Properties=species:S:1:pos:R:3 #=T CELL(abcABC):=T 1.889726e+02=T 90.00000=T Traj:=T positionsangstrom=T Step:=T 0=T Bead:=T pbc="F F F"
C      -46.74290000     -35.36120000     -74.27580000
C      -46.52240000     -36.12910000     -73.05780000
C      -47.19350000     -35.78320000     -71.91430000
C      -48.18490000     -34.83270000     -71.91150000
C      -48.47480000     -34.14910000     -73.11130000
C      -47.75300000     -34.47020000     -74.27710000
H      -46.17420000     -35.61470000     -75.19670000
H      -46.94480000     -36.37520000     -71.06220000
H      -49.21590000     -33.34890000     -73.17740000
H      -47.86560000     -33.79680000     -75.16730000
C      -48.99470000     -34.25030000     -70.65220000
H      -49.70580000     -35.05500000     -70.33310000
H      -49.39260000     -33.34070000     -71.05010000
C      -45.60690000     -37.32100000     -72.97990000
H      -46.06640000     -38.21490000     -72.57310000
H      -45.19840000     -37.57220000     -73.90870000
S      -48.12670000     -33.89750000     -69.07520000
S      -44.17450000     -37.01560000     -71.74490000
C      -47.00440000     -32.66520000     -69.81060000
H      -46.67500000     -32.97620000     -70.78230000
H      -47.58910000     -31.73120000     -69.89100000
C      -43.54550000     -35.34170000     -72.26590000
H      -43.68030000     -35.18850000     -73.35800000
H      -42.45880000     -35.28770000     -72.12710000
C      -44.13310000     -34.20860000     -71.45940000
H      -45.21830000     -34.03520000     -71.73010000
H      -44.07650000     -34.59890000     -70.32440000
C      -45.82260000     -32.55260000     -68.91200000
H      -45.37050000     -33.51720000     -68.71730000
H      -46.04460000     -32.13420000     -67.89450000
C      -44.73820000     -31.54190000     -69.48300000
C      -44.70570000     -30.28620000     -68.97450000
C      -43.87670000     -31.76210000     -70.60670000
H      -45.25580000     -29.90390000     -68.06400000
C      -43.19790000     -30.61050000     -70.92880000
C      -43.58330000     -32.83360000     -71.53600000
C      -42.73220000     -32.41910000     -72.56430000
S      -43.55610000     -29.24470000     -69.83460000
S      -42.21290000     -30.78460000     -72.37480000
H      -42.28170000     -33.08550000     -73.31440000
