40
Properties=species:S:1:pos:R:3 #=T CELL(abcABC):=T 1.889726e+02=T 90.00000=T Traj:=T positionsangstrom=T Step:=T 0=T Bead:=T pbc="F F F"
C      -46.85220000     -35.41770000     -74.11600000
C      -46.72880000     -36.15260000     -72.96070000
C      -47.58640000     -35.93540000     -71.89920000
C      -48.54120000     -34.91880000     -71.95340000
C      -48.62070000     -34.07470000     -73.12770000
C      -47.71640000     -34.26140000     -74.13850000
H      -46.44490000     -35.68860000     -75.10980000
H      -47.47510000     -36.51470000     -70.97470000
H      -49.33900000     -33.31540000     -73.23210000
H      -47.63350000     -33.56550000     -74.94680000
C      -49.28410000     -34.54370000     -70.65070000
H      -49.84560000     -35.47380000     -70.36520000
H      -50.04700000     -33.72220000     -70.81570000
C      -45.59780000     -37.22770000     -72.80120000
H      -46.16480000     -38.13250000     -72.50970000
H      -45.04120000     -37.32300000     -73.74570000
S      -48.11280000     -34.19290000     -69.26310000
S      -44.25350000     -36.80540000     -71.55030000
C      -47.11650000     -32.79650000     -69.94610000
H      -46.97860000     -33.12130000     -70.97220000
H      -47.69760000     -31.81730000     -69.94320000
C      -43.47060000     -35.31070000     -72.19580000
H      -43.25740000     -35.41530000     -73.22830000
H      -42.51490000     -35.25370000     -71.66970000
C      -44.29540000     -33.90930000     -72.09170000
H      -44.92780000     -33.79910000     -72.93130000
H      -45.02770000     -34.08900000     -71.31570000
C      -45.78750000     -32.66600000     -69.21610000
H      -45.33340000     -33.61280000     -69.30160000
H      -46.10800000     -32.46690000     -68.16180000
C      -44.76170000     -31.62850000     -69.64510000
C      -44.55000000     -30.53090000     -68.91070000
C      -43.80070000     -31.70990000     -70.79430000
H      -45.04300000     -30.10320000     -68.00070000
C      -42.89770000     -30.63670000     -70.70900000
C      -43.49780000     -32.64410000     -71.84710000
C      -42.50730000     -32.18210000     -72.69420000
S      -43.37330000     -29.39560000     -69.57860000
S      -41.97510000     -30.52920000     -72.20360000
H      -42.11200000     -32.64000000     -73.61950000
