40
Properties=species:S:1:pos:R:3 #=T CELL(abcABC):=T 1.889726e+02=T 90.00000=T Traj:=T positionsangstrom=T Step:=T 0=T Bead:=T pbc="F F F"
C      -45.49580000     -31.93110000     -67.01750000
C      -44.53250000     -32.13570000     -68.04820000
C      -44.56870000     -31.32230000     -69.18070000
C      -45.56060000     -30.27350000     -69.30510000
C      -46.40010000     -30.01950000     -68.23590000
C      -46.39710000     -30.87180000     -67.10210000
H      -45.40400000     -32.58990000     -66.17150000
H      -43.89930000     -31.35790000     -70.00800000
H      -47.15840000     -29.25120000     -68.40470000
H      -47.14610000     -30.71990000     -66.38640000
C      -45.64780000     -29.57500000     -70.61080000
H      -44.75500000     -29.73790000     -71.14310000
H      -45.89150000     -28.53010000     -70.63860000
C      -43.49920000     -33.27530000     -67.63690000
H      -42.72870000     -32.73580000     -67.14800000
H      -43.87210000     -34.04190000     -66.90030000
S      -46.93960000     -30.31590000     -71.61640000
S      -42.51500000     -34.00050000     -68.97190000
C      -46.55260000     -32.00730000     -71.96750000
H      -46.58040000     -32.67930000     -71.05300000
H      -47.51760000     -32.41490000     -72.48800000
C      -43.68320000     -35.28200000     -69.82090000
H      -44.03640000     -36.03060000     -69.03550000
H      -42.99820000     -35.73100000     -70.55180000
C      -44.89360000     -34.68110000     -70.60230000
H      -45.72580000     -34.59280000     -69.83010000
H      -44.68160000     -33.64750000     -70.92710000
C      -45.42000000     -32.21980000     -72.88200000
H      -44.53010000     -32.23420000     -72.13220000
H      -45.16980000     -31.32170000     -73.54060000
C      -45.41460000     -33.46230000     -73.76180000
C      -45.44100000     -33.50950000     -75.11470000
C      -45.55800000     -34.84270000     -73.18020000
H      -45.20930000     -32.68020000     -75.76620000
C      -45.68420000     -35.79320000     -74.20940000
C      -45.39130000     -35.40210000     -71.83420000
C      -45.81470000     -36.70650000     -71.93220000
S      -45.70630000     -35.04020000     -75.82960000
S      -45.97790000     -37.41610000     -73.50840000
H      -46.00350000     -37.37850000     -71.11750000
