40
Properties=species:S:1:pos:R:3 #=T CELL(abcABC):=T 1.889726e+02=T 90.00000=T Traj:=T positionsangstrom=T Step:=T 0=T Bead:=T pbc="F F F"
C      -44.69530000     -30.23300000     -68.91680000
C      -44.53560000     -31.53240000     -68.35000000
C      -43.43810000     -32.32840000     -68.82720000
C      -42.57350000     -31.86090000     -69.84240000
C      -42.84950000     -30.63820000     -70.41730000
C      -43.85010000     -29.78680000     -69.93100000
H      -45.46570000     -29.49720000     -68.55940000
H      -43.42100000     -33.37700000     -68.53850000
H      -42.17120000     -30.09040000     -71.07900000
H      -44.06660000     -28.83310000     -70.31750000
C      -41.41170000     -32.71400000     -70.32600000
H      -40.55090000     -32.68420000     -69.60100000
H      -41.08880000     -32.24900000     -71.27110000
C      -45.52000000     -31.97850000     -67.32580000
H      -44.97430000     -32.31920000     -66.43780000
H      -46.22880000     -31.16220000     -67.09750000
S      -41.80200000     -34.46930000     -70.58620000
S      -46.53030000     -33.46420000     -67.91990000
C      -42.78780000     -34.46840000     -72.22170000
H      -42.42700000     -33.60750000     -72.80620000
H      -42.75280000     -35.35370000     -72.90580000
C      -46.85090000     -33.21210000     -69.74370000
H      -46.04290000     -32.70800000     -70.33160000
H      -47.67400000     -32.60300000     -69.94790000
C      -47.11050000     -34.65520000     -70.39070000
H      -46.15270000     -35.24480000     -70.44520000
H      -47.78250000     -35.23830000     -69.85160000
C      -44.23350000     -34.14900000     -71.92730000
H      -44.23680000     -33.09310000     -71.47920000
H      -44.60060000     -34.82890000     -71.17380000
C      -45.19160000     -34.11760000     -73.10700000
C      -44.85620000     -34.15410000     -74.41350000
C      -46.63050000     -34.30620000     -72.91790000
H      -43.83340000     -34.17920000     -74.79270000
C      -47.29920000     -34.31170000     -74.14410000
C      -47.58870000     -34.48890000     -71.84870000
C      -48.88560000     -34.53090000     -72.29490000
S      -46.19520000     -34.25060000     -75.53750000
S      -49.04520000     -34.41070000     -74.03880000
H      -49.68920000     -34.41690000     -71.59990000
