40
Properties=species:S:1:pos:R:3 #=T CELL(abcABC):=T 1.889726e+02=T 90.00000=T Traj:=T positionsangstrom=T Step:=T 0=T Bead:=T pbc="F F F"
C      -46.58150000     -34.68560000     -74.87340000
C      -45.85970000     -35.60010000     -74.03660000
C      -46.35490000     -35.91900000     -72.73330000
C      -47.62240000     -35.47780000     -72.27220000
C      -48.29060000     -34.56630000     -73.08670000
C      -47.75070000     -34.16480000     -74.32220000
H      -46.12860000     -34.35660000     -75.80440000
H      -45.82490000     -36.70250000     -72.19630000
H      -49.16210000     -34.10720000     -72.53940000
H      -48.44700000     -33.49950000     -74.90790000
C      -48.06920000     -35.86380000     -70.85260000
H      -47.21280000     -36.17070000     -70.27050000
H      -48.78040000     -36.68880000     -70.82270000
C      -44.58210000     -36.16470000     -74.56300000
H      -44.52080000     -37.23540000     -74.49870000
H      -44.40550000     -35.89960000     -75.65260000
S      -48.98270000     -34.47200000     -70.06810000
S      -43.06100000     -35.72060000     -73.57270000
C      -47.61070000     -33.14200000     -70.11670000
H      -47.33360000     -32.85390000     -71.17470000
H      -48.10660000     -32.36580000     -69.59510000
C      -43.23150000     -33.91870000     -73.21540000
H      -43.66330000     -33.50260000     -74.14980000
H      -42.24040000     -33.46120000     -73.03410000
C      -44.14970000     -33.53700000     -72.01920000
H      -45.18560000     -33.38420000     -72.39340000
H      -44.16890000     -34.29090000     -71.26200000
C      -46.25680000     -33.54980000     -69.56980000
H      -45.63750000     -34.09610000     -70.24690000
H      -46.47160000     -34.24360000     -68.76400000
C      -45.41110000     -32.33210000     -69.21370000
C      -45.66100000     -31.64620000     -68.05690000
C      -44.36360000     -31.80140000     -70.02000000
H      -46.48940000     -31.74220000     -67.28350000
C      -43.65190000     -30.75070000     -69.43830000
C      -43.64150000     -32.27850000     -71.28750000
C      -42.54260000     -31.48530000     -71.56350000
S      -44.38590000     -30.35750000     -67.86970000
S      -42.19400000     -30.24070000     -70.31220000
H      -41.90050000     -31.64880000     -72.44460000
