40
Properties=species:S:1:pos:R:3 #=T CELL(abcABC):=T 1.889726e+02=T 90.00000=T Traj:=T positionsangstrom=T Step:=T 0=T Bead:=T pbc="F F F"
C      -46.83420000     -33.87500000     -74.95680000
C      -45.85800000     -34.65860000     -74.33130000
C      -46.13880000     -35.45260000     -73.21190000
C      -47.49530000     -35.38730000     -72.68250000
C      -48.50100000     -34.58830000     -73.30250000
C      -48.20210000     -33.84720000     -74.52570000
H      -46.56400000     -33.32780000     -75.94280000
H      -45.34040000     -36.01440000     -72.84430000
H      -49.48880000     -34.54490000     -72.87530000
H      -48.92150000     -33.12170000     -74.96300000
C      -47.74590000     -36.11300000     -71.41250000
H      -46.77010000     -36.58610000     -71.03080000
H      -48.38000000     -36.96420000     -71.58860000
C      -44.45270000     -34.68810000     -74.93350000
H      -44.38380000     -35.38030000     -75.84910000
H      -44.27620000     -33.63870000     -75.19890000
S      -48.54370000     -35.27450000     -70.01720000
S      -43.17520000     -35.46540000     -73.77810000
C      -47.56580000     -33.78870000     -69.70230000
H      -47.63140000     -33.08880000     -70.59050000
H      -48.09750000     -33.31510000     -68.88190000
C      -42.66630000     -33.95750000     -72.82310000
H      -42.30680000     -33.16540000     -73.44420000
H      -41.87170000     -34.32180000     -72.18640000
C      -43.95050000     -33.49040000     -72.02740000
H      -44.77150000     -33.23590000     -72.65110000
H      -44.26640000     -34.40350000     -71.48830000
C      -46.05090000     -34.10880000     -69.31700000
H      -45.63880000     -34.72590000     -70.09710000
H      -46.05090000     -34.76020000     -68.39750000
C      -45.30490000     -32.77650000     -68.98990000
C      -45.57200000     -32.09190000     -67.81100000
C      -44.33970000     -32.07740000     -69.86480000
H      -46.35410000     -32.33860000     -67.09720000
C      -43.87880000     -30.91980000     -69.23650000
C      -43.62290000     -32.29070000     -71.06820000
C      -42.74200000     -31.28410000     -71.39470000
S      -44.56020000     -30.64800000     -67.66000000
S      -42.69000000     -30.02660000     -70.22430000
H      -42.03520000     -31.19800000     -72.28030000
