40
Properties=species:S:1:pos:R:3 #=T CELL(abcABC):=T 1.889726e+02=T 90.00000=T Traj:=T positionsangstrom=T Step:=T 0=T Bead:=T pbc="F F F"
C      -46.61040000     -33.26550000     -74.28270000
C      -45.85510000     -34.42150000     -74.23290000
C      -46.28870000     -35.47220000     -73.37740000
C      -47.49550000     -35.35160000     -72.62790000
C      -48.33220000     -34.23190000     -72.90150000
C      -47.82660000     -33.13020000     -73.60850000
H      -46.34660000     -32.55180000     -74.97870000
H      -45.71570000     -36.32600000     -73.04260000
H      -49.37330000     -34.02440000     -72.50920000
H      -48.47790000     -32.22010000     -73.82670000
C      -47.89720000     -36.41030000     -71.51570000
H      -47.05170000     -37.13260000     -71.37600000
H      -48.73540000     -36.95910000     -71.86420000
C      -44.68930000     -34.65660000     -75.13870000
H      -44.93120000     -35.52190000     -75.69670000
H      -44.55790000     -33.75620000     -75.83450000
S      -48.45720000     -35.58510000     -70.00460000
S      -43.11610000     -35.07790000     -74.24260000
C      -47.40510000     -34.09910000     -69.69330000
H      -47.66020000     -33.27260000     -70.42350000
H      -47.95250000     -33.71210000     -68.81840000
C      -42.81590000     -33.57230000     -73.28170000
H      -42.89800000     -32.72210000     -73.95930000
H      -41.75690000     -33.73320000     -72.91040000
C      -43.69160000     -33.55380000     -72.06140000
H      -44.72030000     -33.47610000     -72.38070000
H      -43.57530000     -34.56260000     -71.61960000
C      -45.90930000     -34.27580000     -69.52100000
H      -45.55740000     -34.61700000     -70.53360000
H      -45.67800000     -35.08790000     -68.76970000
C      -45.37230000     -32.93380000     -69.20940000
C      -45.85750000     -32.25320000     -68.13850000
C      -44.24760000     -32.23980000     -69.83160000
H      -46.66950000     -32.49890000     -67.50470000
C      -43.95660000     -31.05370000     -69.18020000
C      -43.45190000     -32.45190000     -71.06580000
C      -42.58380000     -31.39030000     -71.16860000
S      -45.04220000     -30.79430000     -67.78780000
S      -42.57740000     -30.21840000     -69.90660000
H      -41.94070000     -31.18900000     -72.02580000
