40
Properties=species:S:1:pos:R:3 #=T CELL(abcABC):=T 1.889726e+02=T 90.00000=T Traj:=T positionsangstrom=T Step:=T 0=T Bead:=T pbc="F F F"
C      -46.22590000     -31.81390000     -68.01790000
C      -45.57910000     -33.03440000     -67.93400000
C      -44.20280000     -33.13210000     -68.31430000
C      -43.53690000     -32.00880000     -68.86150000
C      -44.25040000     -30.77600000     -69.01980000
C      -45.52250000     -30.63370000     -68.49310000
H      -47.25920000     -31.63120000     -67.71750000
H      -43.72460000     -34.10710000     -68.26930000
H      -43.80840000     -29.81330000     -69.37670000
H      -46.10370000     -29.73330000     -68.55470000
C      -42.16580000     -32.10860000     -69.43610000
H      -41.39860000     -32.10460000     -68.64330000
H      -41.93600000     -31.25050000     -70.08500000
C      -46.17050000     -34.32840000     -67.41740000
H      -45.34830000     -35.02030000     -67.15450000
H      -46.82100000     -34.18610000     -66.54690000
S      -41.79940000     -33.68570000     -70.35690000
S      -47.35930000     -34.93390000     -68.66020000
C      -42.88910000     -33.43100000     -71.80460000
H      -43.75950000     -32.79310000     -71.61650000
H      -42.37420000     -32.98280000     -72.62760000
C      -46.68520000     -34.87420000     -70.35950000
H      -47.44440000     -35.33100000     -71.00360000
H      -45.75750000     -35.42950000     -70.37740000
C      -46.43200000     -33.41630000     -70.80010000
H      -47.11480000     -32.73370000     -70.20100000
H      -45.43400000     -33.13370000     -70.46560000
C      -43.59320000     -34.73970000     -72.22050000
H      -44.21690000     -35.02190000     -71.40460000
H      -42.87710000     -35.50170000     -72.51100000
C      -44.55360000     -34.41190000     -73.38350000
C      -44.20720000     -34.63860000     -74.69030000
C      -45.84210000     -33.68240000     -73.35850000
H      -43.29100000     -35.17310000     -74.93140000
C      -46.38660000     -33.38470000     -74.58400000
C      -46.70390000     -33.18740000     -72.29640000
C      -47.86320000     -32.67450000     -72.75910000
S      -45.40390000     -34.06290000     -75.87210000
S      -47.94110000     -32.64910000     -74.53490000
H      -48.69420000     -32.23520000     -72.14200000
