40
Properties=species:S:1:pos:R:3 #=T CELL(abcABC):=T 1.889726e+02=T 90.00000=T Traj:=T positionsangstrom=T Step:=T 0=T Bead:=T pbc="F F F"
C      -46.67940000     -32.96390000     -74.78020000
C      -45.85450000     -34.11870000     -74.75470000
C      -46.22060000     -35.09140000     -73.81600000
C      -47.38310000     -35.03730000     -72.98570000
C      -48.15520000     -33.83770000     -73.10760000
C      -47.75470000     -32.78520000     -73.92220000
H      -46.43740000     -32.12550000     -75.43590000
H      -45.53170000     -35.95700000     -73.79540000
H      -48.99910000     -33.77450000     -72.48500000
H      -48.23740000     -31.80960000     -73.97920000
C      -47.70290000     -36.18330000     -72.13400000
H      -46.80590000     -36.78940000     -72.06780000
H      -48.48670000     -36.84980000     -72.59710000
C      -44.45830000     -34.09090000     -75.36360000
H      -44.50330000     -34.80150000     -76.18400000
H      -44.14170000     -33.15060000     -75.76680000
S      -48.18600000     -35.83820000     -70.31130000
S      -43.12140000     -34.82970000     -74.26790000
C      -47.25160000     -34.41030000     -69.81060000
H      -47.16560000     -33.64450000     -70.62770000
H      -47.79600000     -33.94230000     -68.97270000
C      -42.82060000     -33.47080000     -73.01890000
H      -42.95880000     -32.54240000     -73.51890000
H      -41.67760000     -33.39230000     -72.88760000
C      -43.61160000     -33.66690000     -71.69230000
H      -44.64480000     -33.96990000     -71.93140000
H      -43.28880000     -34.59830000     -71.15580000
C      -45.81710000     -34.70030000     -69.21260000
H      -45.10100000     -35.10890000     -69.92130000
H      -45.82910000     -35.36160000     -68.29690000
C      -45.37130000     -33.29850000     -68.86740000
C      -45.87320000     -32.67620000     -67.74520000
C      -44.45960000     -32.40710000     -69.63330000
H      -46.60880000     -33.03850000     -67.11860000
C      -44.27050000     -31.22000000     -69.00200000
C      -43.54920000     -32.51900000     -70.73380000
C      -42.67690000     -31.45210000     -70.82940000
S      -45.13860000     -31.08980000     -67.50860000
S      -42.99260000     -30.26640000     -69.62800000
H      -42.04990000     -31.35360000     -71.68830000
