40
Properties=species:S:1:pos:R:3 #=T CELL(abcABC):=T 1.889726e+02=T 90.00000=T Traj:=T positionsangstrom=T Step:=T 0=T Bead:=T pbc="F F F"
C      -46.64720000     -32.98600000     -75.09360000
C      -45.67080000     -33.96560000     -74.86570000
C      -45.98520000     -35.09770000     -74.04450000
C      -47.26520000     -35.23900000     -73.48200000
C      -48.25320000     -34.25910000     -73.79500000
C      -47.93530000     -33.18230000     -74.63080000
H      -46.53850000     -32.16240000     -75.72900000
H      -45.20900000     -35.88770000     -74.03670000
H      -49.30810000     -34.40280000     -73.37250000
H      -48.65410000     -32.49750000     -74.87300000
C      -47.60690000     -36.30570000     -72.48960000
H      -46.63980000     -36.88970000     -72.37150000
H      -48.22730000     -37.09840000     -72.89500000
C      -44.24940000     -33.74050000     -75.42660000
H      -44.14120000     -34.37520000     -76.32970000
H      -44.16260000     -32.63360000     -75.71660000
S      -48.28860000     -35.75070000     -70.85230000
S      -42.97140000     -34.24190000     -74.24800000
C      -47.24820000     -34.30640000     -70.44240000
H      -47.04300000     -33.58870000     -71.30200000
H      -47.98890000     -33.75100000     -69.82550000
C      -43.06750000     -32.86650000     -72.91270000
H      -43.33010000     -31.90180000     -73.48130000
H      -42.09920000     -32.73430000     -72.60620000
C      -44.02550000     -33.30570000     -71.79740000
H      -45.06410000     -33.29180000     -72.15420000
H      -43.73420000     -34.34420000     -71.50270000
C      -46.07110000     -34.59360000     -69.50120000
H      -45.18620000     -34.98460000     -69.98690000
H      -46.38010000     -35.35890000     -68.74090000
C      -45.55030000     -33.37170000     -68.75080000
C      -45.74970000     -33.08990000     -67.38760000
C      -44.55810000     -32.48130000     -69.29870000
H      -46.54950000     -33.45890000     -66.76200000
C      -44.10230000     -31.55750000     -68.38620000
C      -43.84580000     -32.36540000     -70.56430000
C      -43.01400000     -31.21320000     -70.52500000
S      -44.76040000     -31.71680000     -66.76480000
S      -42.99860000     -30.37680000     -68.96860000
H      -42.21240000     -30.90350000     -71.15990000
