40
Properties=species:S:1:pos:R:3 #=T CELL(abcABC):=T 1.889726e+02=T 90.00000=T Traj:=T positionsangstrom=T Step:=T 0=T Bead:=T pbc="F F F"
C      -46.76380000     -32.90740000     -74.75980000
C      -45.75840000     -33.92260000     -74.52510000
C      -46.16080000     -35.08070000     -73.80000000
C      -47.42940000     -35.15630000     -73.25280000
C      -48.38730000     -34.18940000     -73.57640000
C      -48.09690000     -33.02080000     -74.29550000
H      -46.40430000     -32.07860000     -75.32740000
H      -45.47050000     -35.83520000     -73.46800000
H      -49.40340000     -34.33790000     -73.21760000
H      -48.95000000     -32.32210000     -74.42440000
C      -47.91360000     -36.31600000     -72.47920000
H      -47.17590000     -37.15300000     -72.56510000
H      -48.82040000     -36.76900000     -72.93500000
C      -44.34530000     -33.66110000     -75.08430000
H      -44.27780000     -34.12740000     -76.03990000
H      -44.35790000     -32.56970000     -75.23750000
S      -48.11540000     -35.85100000     -70.69590000
S      -42.98840000     -34.53680000     -74.17330000
C      -47.11350000     -34.27170000     -70.24880000
H      -46.90980000     -33.73080000     -71.18360000
H      -47.76060000     -33.65150000     -69.66920000
C      -42.65550000     -33.52520000     -72.72250000
H      -42.44660000     -32.53350000     -73.10890000
H      -41.61980000     -33.81330000     -72.40240000
C      -43.72290000     -33.58540000     -71.64650000
H      -44.69360000     -33.75420000     -72.06030000
H      -43.47700000     -34.60490000     -71.19430000
C      -45.90910000     -34.62920000     -69.43890000
H      -45.18280000     -35.16230000     -70.14840000
H      -46.14400000     -35.30570000     -68.66430000
C      -45.28630000     -33.39690000     -68.80580000
C      -45.59180000     -32.97620000     -67.53890000
C      -44.47680000     -32.44290000     -69.52300000
H      -46.38950000     -33.44010000     -66.90670000
C      -44.26480000     -31.30730000     -68.70950000
C      -43.67660000     -32.43340000     -70.68610000
C      -42.92830000     -31.29980000     -70.74950000
S      -44.92440000     -31.39330000     -67.16000000
S      -43.15360000     -30.16940000     -69.47320000
H      -42.14650000     -31.06950000     -71.50870000
