40
Properties=species:S:1:pos:R:3 #=T CELL(abcABC):=T 1.889726e+02=T 90.00000=T Traj:=T positionsangstrom=T Step:=T 0=T Bead:=T pbc="F F F"
C      -46.56010000     -32.73760000     -75.42110000
C      -45.46180000     -33.52570000     -74.99370000
C      -45.79010000     -34.60110000     -74.21090000
C      -47.10080000     -34.88540000     -73.75970000
C      -48.17660000     -34.19100000     -74.35740000
C      -47.87120000     -33.11220000     -75.20580000
H      -46.30510000     -31.86580000     -76.06490000
H      -45.07420000     -35.32390000     -73.83030000
H      -49.16150000     -34.42800000     -74.12790000
H      -48.67450000     -32.70600000     -75.70630000
C      -47.28830000     -36.09560000     -72.80860000
H      -46.27740000     -36.51120000     -72.46210000
H      -47.90070000     -36.82720000     -73.33400000
C      -44.01380000     -33.25800000     -75.41740000
H      -43.62370000     -33.75460000     -76.33990000
H      -43.81140000     -32.18610000     -75.54300000
S      -48.26900000     -35.78150000     -71.34460000
S      -42.79320000     -33.74760000     -74.07770000
C      -47.28610000     -34.41940000     -70.51500000
H      -47.02600000     -33.59230000     -71.19490000
H      -47.86630000     -34.03320000     -69.67200000
C      -43.01310000     -32.57490000     -72.64330000
H      -43.42470000     -31.58880000     -72.98450000
H      -42.07050000     -32.33170000     -72.12930000
C      -44.01380000     -33.05550000     -71.59320000
H      -45.04860000     -33.16630000     -71.89240000
H      -43.73630000     -34.07560000     -71.27370000
C      -46.00450000     -34.92120000     -69.76320000
H      -45.23690000     -35.33750000     -70.42470000
H      -46.33110000     -35.76650000     -69.08260000
C      -45.45630000     -33.85330000     -68.79590000
C      -45.63890000     -33.82190000     -67.41420000
C      -44.67850000     -32.66450000     -69.15670000
H      -46.31450000     -34.44960000     -66.82610000
C      -44.46640000     -31.79460000     -68.07350000
C      -44.00250000     -32.18840000     -70.32050000
C      -43.39320000     -30.97180000     -70.12450000
S      -44.98800000     -32.44990000     -66.53700000
S      -43.26850000     -30.63310000     -68.40820000
H      -42.55590000     -30.54870000     -70.72440000
