40
Properties=species:S:1:pos:R:3 #=T CELL(abcABC):=T 1.889726e+02=T 90.00000=T Traj:=T positionsangstrom=T Step:=T 0=T Bead:=T pbc="F F F"
C      -46.47410000     -33.21840000     -75.28580000
C      -45.47360000     -34.00470000     -74.70440000
C      -45.83250000     -34.97370000     -73.75350000
C      -47.16160000     -35.07680000     -73.27590000
C      -48.12500000     -34.16360000     -73.75630000
C      -47.77960000     -33.29420000     -74.76490000
H      -46.25420000     -32.38500000     -75.98840000
H      -45.06940000     -35.56290000     -73.27730000
H      -49.12850000     -34.21580000     -73.40390000
H      -48.58740000     -32.59710000     -74.97380000
C      -47.51900000     -36.14620000     -72.20140000
H      -46.63830000     -36.65280000     -71.77320000
H      -48.22050000     -36.84890000     -72.76900000
C      -44.15900000     -33.79630000     -75.33770000
H      -43.95400000     -34.67110000     -76.03000000
H      -44.22010000     -32.88500000     -75.96680000
S      -48.55600000     -35.46140000     -70.89530000
S      -42.75280000     -33.84210000     -74.20900000
C      -47.45150000     -34.13030000     -70.21290000
H      -47.47230000     -33.22310000     -70.87000000
H      -47.93650000     -33.95660000     -69.18770000
C      -43.08440000     -32.47780000     -73.05300000
H      -43.52730000     -31.64810000     -73.56140000
H      -42.00850000     -32.24340000     -72.69000000
C      -44.08920000     -32.88750000     -71.95350000
H      -45.11450000     -32.50350000     -72.19560000
H      -44.24180000     -33.99600000     -71.94710000
C      -46.06180000     -34.65050000     -69.91850000
H      -45.45880000     -34.91310000     -70.80940000
H      -46.21520000     -35.59660000     -69.37290000
C      -45.37140000     -33.66930000     -69.00710000
C      -45.82310000     -33.61990000     -67.67630000
C      -44.57900000     -32.54410000     -69.37790000
H      -46.40900000     -34.43630000     -67.23230000
C      -44.29830000     -31.68900000     -68.30730000
C      -43.85860000     -32.26280000     -70.60380000
C      -42.96420000     -31.22090000     -70.43710000
S      -44.90730000     -32.41560000     -66.79190000
S      -43.06720000     -30.44160000     -68.83440000
H      -42.41990000     -30.76710000     -71.29800000
