40
Properties=species:S:1:pos:R:3 #=T CELL(abcABC):=T 1.889726e+02=T 90.00000=T Traj:=T positionsangstrom=T Step:=T 0=T Bead:=T pbc="F F F"
C      -46.31430000     -31.66740000     -67.91340000
C      -45.55630000     -32.90300000     -67.83350000
C      -44.20630000     -32.90010000     -68.20550000
C      -43.61050000     -31.77590000     -68.83740000
C      -44.45660000     -30.65710000     -69.08490000
C      -45.77250000     -30.63730000     -68.59590000
H      -47.38020000     -31.70140000     -67.65250000
H      -43.61670000     -33.76730000     -68.01560000
H      -44.10470000     -29.77640000     -69.66560000
H      -46.42560000     -29.72580000     -68.56990000
C      -42.19390000     -31.95240000     -69.48700000
H      -41.44820000     -31.89840000     -68.70290000
H      -42.03810000     -31.17730000     -70.22140000
C      -46.25360000     -34.16000000     -67.27740000
H      -45.56130000     -34.98270000     -67.07410000
H      -46.86320000     -33.87560000     -66.43620000
S      -41.84900000     -33.54860000     -70.38360000
S      -47.38180000     -34.87210000     -68.56190000
C      -42.97250000     -33.47340000     -71.86230000
H      -43.68800000     -32.73830000     -71.56450000
H      -42.50240000     -32.94080000     -72.69330000
C      -46.60900000     -34.76540000     -70.21640000
H      -47.26470000     -35.42520000     -70.81480000
H      -45.65230000     -35.30310000     -70.28250000
C      -46.44240000     -33.34240000     -70.80950000
H      -47.16940000     -32.66130000     -70.29590000
H      -45.36880000     -33.09130000     -70.59470000
C      -43.53600000     -34.81220000     -72.35780000
H      -43.87800000     -35.27130000     -71.47230000
H      -42.69320000     -35.37020000     -72.67270000
C      -44.53670000     -34.55910000     -73.42650000
C      -44.09170000     -34.75430000     -74.73780000
C      -45.79420000     -33.86640000     -73.34140000
H      -43.19850000     -35.17160000     -75.16850000
C      -46.35060000     -33.66930000     -74.62230000
C      -46.65840000     -33.30040000     -72.29470000
C      -47.82260000     -32.82830000     -72.82640000
S      -45.33020000     -34.25470000     -75.86810000
S      -47.80110000     -32.78220000     -74.60090000
H      -48.62830000     -32.30520000     -72.28220000
