40
Properties=species:S:1:pos:R:3 #=T CELL(abcABC):=T 1.889726e+02=T 90.00000=T Traj:=T positionsangstrom=T Step:=T 0=T Bead:=T pbc="F F F"
C      -46.76040000     -34.94410000     -69.32330000
C      -45.66750000     -34.31030000     -68.73270000
C      -45.64300000     -32.91650000     -68.67060000
C      -46.65140000     -32.09700000     -69.15110000
C      -47.81060000     -32.73780000     -69.66550000
C      -47.82680000     -34.15980000     -69.75210000
H      -46.88900000     -36.00670000     -69.37910000
H      -44.69670000     -32.51490000     -68.29930000
H      -48.69100000     -32.12510000     -70.01210000
H      -48.71560000     -34.63220000     -70.18750000
C      -46.72640000     -30.58070000     -69.12660000
H      -45.99910000     -30.05210000     -68.49740000
H      -47.80170000     -30.34620000     -68.81040000
C      -44.47900000     -35.13300000     -68.30160000
H      -43.58420000     -34.47640000     -68.07200000
H      -44.57080000     -35.55060000     -67.33890000
S      -46.65510000     -29.81960000     -70.79110000
S      -43.96240000     -36.42870000     -69.49980000
C      -44.85040000     -29.76830000     -71.21060000
H      -44.85680000     -29.10640000     -72.05340000
H      -44.33780000     -29.32930000     -70.38500000
C      -42.58000000     -35.57760000     -70.30480000
H      -42.03630000     -36.30070000     -70.94830000
H      -41.80380000     -35.32060000     -69.52640000
C      -42.88590000     -34.31100000     -71.03110000
H      -43.27640000     -33.60130000     -70.31520000
H      -41.94590000     -33.86510000     -71.39090000
C      -44.29070000     -31.13600000     -71.41030000
H      -44.41940000     -31.67210000     -70.51340000
H      -43.16030000     -31.05310000     -71.56170000
C      -44.84670000     -32.02460000     -72.57690000
C      -45.72430000     -31.52000000     -73.50020000
C      -44.46040000     -33.43030000     -72.85970000
H      -46.14380000     -30.47630000     -73.53440000
C      -45.23020000     -33.89690000     -73.97230000
C      -43.72060000     -34.49580000     -72.20190000
C      -43.94600000     -35.67480000     -72.83720000
S      -46.34340000     -32.72130000     -74.62330000
S      -45.08540000     -35.61140000     -74.19210000
H      -43.60850000     -36.58880000     -72.45410000
