40
Properties=species:S:1:pos:R:3 #=T CELL(abcABC):=T 1.889726e+02=T 90.00000=T Traj:=T positionsangstrom=T Step:=T 0=T Bead:=T pbc="F F F"
C      -46.68770000     -35.15090000     -68.84490000
C      -45.61350000     -34.28420000     -68.43370000
C      -45.78060000     -32.90290000     -68.64490000
C      -46.96600000     -32.38290000     -69.26010000
C      -47.91540000     -33.27100000     -69.71230000
C      -47.80180000     -34.64510000     -69.50070000
H      -46.56480000     -36.23170000     -68.67200000
H      -45.02540000     -32.21370000     -68.28350000
H      -48.80570000     -32.95690000     -70.34390000
H      -48.55170000     -35.36860000     -69.85210000
C      -47.17120000     -30.91350000     -69.31770000
H      -46.27050000     -30.47630000     -68.86040000
H      -48.04330000     -30.65470000     -68.58150000
C      -44.33670000     -34.88430000     -67.86810000
H      -43.62870000     -34.07480000     -67.64340000
H      -44.55510000     -35.48910000     -66.99690000
S      -47.38640000     -30.26260000     -71.09590000
S      -43.56540000     -35.94040000     -69.19530000
C      -45.69990000     -29.71720000     -71.67900000
H      -45.90870000     -29.29130000     -72.62430000
H      -45.23660000     -28.96840000     -71.08630000
C      -42.31000000     -34.84410000     -69.94310000
H      -41.67180000     -35.55780000     -70.44930000
H      -41.75660000     -34.35460000     -69.08250000
C      -42.88080000     -33.67070000     -70.86690000
H      -43.48230000     -32.89300000     -70.27470000
H      -41.99370000     -33.14380000     -71.25810000
C      -44.59680000     -30.84770000     -71.86370000
H      -44.40800000     -31.28420000     -70.83530000
H      -43.62470000     -30.34100000     -72.12610000
C      -45.01150000     -31.91420000     -72.83780000
C      -45.84280000     -31.66840000     -73.91250000
C      -44.57590000     -33.35280000     -72.83660000
H      -46.48100000     -30.76450000     -74.08080000
C      -45.03890000     -34.05190000     -73.93130000
C      -43.67620000     -34.13230000     -72.06190000
C      -43.44130000     -35.38560000     -72.57810000
S      -46.15040000     -33.04240000     -74.91040000
S      -44.40740000     -35.68520000     -74.10490000
H      -42.74510000     -36.10650000     -72.24050000
