40
Properties=species:S:1:pos:R:3 #=T CELL(abcABC):=T 1.889726e+02=T 90.00000=T Traj:=T positionsangstrom=T Step:=T 0=T Bead:=T pbc="F F F"
C      -46.80180000     -34.95200000     -69.10310000
C      -45.64920000     -34.24220000     -68.60150000
C      -45.71730000     -32.83890000     -68.65530000
C      -46.89600000     -32.21820000     -69.18700000
C      -47.96400000     -32.94060000     -69.67040000
C      -47.93690000     -34.35270000     -69.57830000
H      -46.84300000     -36.05080000     -69.02420000
H      -44.89550000     -32.23920000     -68.14610000
H      -48.80230000     -32.41580000     -70.03020000
H      -48.79960000     -34.89260000     -69.87040000
C      -46.96270000     -30.68800000     -69.20910000
H      -45.97290000     -30.36130000     -68.80270000
H      -47.67610000     -30.33150000     -68.46120000
C      -44.47930000     -35.06100000     -68.07640000
H      -43.83850000     -34.39680000     -67.57520000
H      -44.82040000     -35.80910000     -67.32900000
S      -47.06130000     -30.05010000     -70.92490000
S      -43.63820000     -36.18990000     -69.36310000
C      -45.19720000     -29.94350000     -71.24720000
H      -45.04560000     -29.22620000     -72.00810000
H      -44.80490000     -29.50780000     -70.34370000
C      -42.25790000     -35.23280000     -70.13600000
H      -41.76320000     -35.91110000     -70.82080000
H      -41.56590000     -34.91100000     -69.38890000
C      -42.72730000     -34.00430000     -71.01470000
H      -43.30630000     -33.44530000     -70.29900000
H      -41.87850000     -33.41920000     -71.29670000
C      -44.39560000     -31.17740000     -71.51810000
H      -44.27070000     -31.78210000     -70.58190000
H      -43.40650000     -30.81980000     -71.70650000
C      -44.91410000     -32.03900000     -72.69210000
C      -45.73700000     -31.54280000     -73.69400000
C      -44.58830000     -33.41980000     -72.89010000
H      -46.16810000     -30.59490000     -73.63020000
C      -45.29960000     -33.96620000     -73.94470000
C      -43.62860000     -34.34350000     -72.16660000
C      -43.76980000     -35.57710000     -72.71970000
S      -46.14900000     -32.75240000     -74.88670000
S      -44.87360000     -35.66950000     -74.18070000
H      -43.19870000     -36.40550000     -72.28290000
