40
Properties=species:S:1:pos:R:3 #=T CELL(abcABC):=T 1.889726e+02=T 90.00000=T Traj:=T positionsangstrom=T Step:=T 0=T Bead:=T pbc="F F F"
C      -46.73480000     -35.09830000     -68.76590000
C      -45.61160000     -34.31080000     -68.50880000
C      -45.68060000     -32.92670000     -68.81460000
C      -46.94090000     -32.40020000     -69.32400000
C      -47.94040000     -33.28700000     -69.69750000
C      -47.84310000     -34.60870000     -69.41440000
H      -46.62830000     -36.12520000     -68.48280000
H      -44.91500000     -32.35140000     -68.46410000
H      -48.86980000     -32.85760000     -70.11690000
H      -48.68160000     -35.35650000     -69.69190000
C      -47.08250000     -30.87030000     -69.41960000
H      -46.32270000     -30.34360000     -68.88790000
H      -48.03780000     -30.58870000     -69.00480000
C      -44.29660000     -34.97770000     -67.95110000
H      -43.58480000     -34.14340000     -67.60010000
H      -44.49480000     -35.61820000     -67.14570000
S      -47.13890000     -30.08860000     -71.11730000
S      -43.50040000     -36.06350000     -69.17700000
C      -45.36080000     -29.70320000     -71.39240000
H      -45.42150000     -28.98870000     -72.30250000
H      -44.95410000     -29.14400000     -70.55510000
C      -42.40650000     -34.81480000     -70.01250000
H      -41.77070000     -35.33980000     -70.73620000
H      -41.73100000     -34.38960000     -69.24640000
C      -43.16490000     -33.71580000     -70.75490000
H      -43.84510000     -33.34920000     -69.98600000
H      -42.54480000     -32.87010000     -71.01060000
C      -44.57300000     -30.99650000     -71.75980000
H      -44.49650000     -31.56100000     -70.88570000
H      -43.56170000     -30.72660000     -72.06140000
C      -45.14990000     -31.92850000     -72.79930000
C      -45.95180000     -31.63010000     -73.86720000
C      -44.71700000     -33.35830000     -72.81730000
H      -46.52290000     -30.70340000     -74.05860000
C      -45.05900000     -34.01500000     -73.95480000
C      -43.82380000     -34.13200000     -72.02760000
C      -43.59830000     -35.34300000     -72.61920000
S      -46.11550000     -33.08810000     -74.99180000
S      -44.51800000     -35.64180000     -74.11600000
H      -42.89100000     -36.10180000     -72.30110000
