40
Properties=species:S:1:pos:R:3 #=T CELL(abcABC):=T 1.889726e+02=T 90.00000=T Traj:=T positionsangstrom=T Step:=T 0=T Bead:=T pbc="F F F"
C      -46.20960000     -31.65650000     -67.78840000
C      -45.54430000     -32.90700000     -67.85020000
C      -44.20600000     -33.06510000     -68.26210000
C      -43.48630000     -31.92440000     -68.73620000
C      -44.13360000     -30.68960000     -68.68400000
C      -45.44800000     -30.50450000     -68.14630000
H      -47.20950000     -31.67690000     -67.30000000
H      -43.75450000     -34.09440000     -68.25970000
H      -43.70210000     -29.75300000     -68.97070000
H      -45.84200000     -29.49820000     -68.19220000
C      -42.07590000     -31.93260000     -69.37470000
H      -41.23690000     -31.86220000     -68.65260000
H      -42.06200000     -31.06830000     -70.01850000
C      -46.22820000     -34.15720000     -67.45420000
H      -45.49650000     -35.00790000     -67.23490000
H      -46.74210000     -34.03550000     -66.47660000
S      -41.67690000     -33.36550000     -70.32820000
S      -47.59670000     -34.68910000     -68.60940000
C      -42.82730000     -33.16650000     -71.75460000
H      -43.62240000     -32.36910000     -71.69590000
H      -42.29170000     -32.85220000     -72.65180000
C      -46.70970000     -34.71740000     -70.25800000
H      -47.39950000     -35.30910000     -70.94760000
H      -45.73350000     -35.24250000     -70.16760000
C      -46.65210000     -33.32870000     -70.91540000
H      -47.49760000     -32.75190000     -70.49760000
H      -45.71940000     -32.79200000     -70.69640000
C      -43.55360000     -34.47090000     -72.25820000
H      -43.91720000     -34.93440000     -71.37780000
H      -42.77990000     -35.07120000     -72.67520000
C      -44.47820000     -34.23930000     -73.41360000
C      -44.01260000     -34.57460000     -74.70300000
C      -45.85160000     -33.81430000     -73.39340000
H      -43.01070000     -34.88620000     -74.95460000
C      -46.40750000     -33.87510000     -74.67620000
C      -46.89010000     -33.47820000     -72.42470000
C      -48.08420000     -33.13400000     -73.05780000
S      -45.29040000     -34.48190000     -75.88270000
S      -47.95600000     -33.10390000     -74.83770000
H      -48.95980000     -32.78970000     -72.56370000
