40
Properties=species:S:1:pos:R:3 #=T CELL(abcABC):=T 1.889726e+02=T 90.00000=T Traj:=T positionsangstrom=T Step:=T 0=T Bead:=T pbc="F F F"
C      -45.96020000     -35.32830000     -70.39890000
C      -45.47080000     -34.50070000     -69.37820000
C      -46.08490000     -33.22530000     -69.08450000
C      -47.23010000     -32.94280000     -69.80000000
C      -47.77380000     -33.77370000     -70.80570000
C      -47.06890000     -34.91920000     -71.15660000
H      -45.35300000     -36.13150000     -70.76870000
H      -45.69240000     -32.48540000     -68.36650000
H      -48.71890000     -33.43920000     -71.38560000
H      -47.41100000     -35.42180000     -72.03280000
C      -47.90690000     -31.63440000     -69.60070000
H      -47.29200000     -30.99500000     -68.97830000
H      -48.84620000     -31.77320000     -68.98910000
C      -44.46580000     -34.93760000     -68.38570000
H      -44.36960000     -34.28900000     -67.48490000
H      -44.69340000     -35.93820000     -68.07750000
S      -48.24500000     -30.72520000     -71.18560000
S      -42.67880000     -35.07010000     -68.90690000
C      -46.60130000     -29.88070000     -71.52370000
H      -46.72930000     -29.42440000     -72.52900000
H      -46.51550000     -29.07290000     -70.86380000
C      -42.04850000     -33.32200000     -69.37070000
H      -41.07470000     -33.47360000     -69.65290000
H      -41.98900000     -32.57830000     -68.55080000
C      -42.89150000     -32.64780000     -70.54030000
H      -43.79840000     -32.25490000     -70.06480000
H      -42.14700000     -31.92380000     -70.88530000
C      -45.44310000     -30.88850000     -71.58400000
H      -45.24310000     -31.24440000     -70.62490000
H      -44.52220000     -30.32200000     -71.85010000
C      -45.60320000     -32.13380000     -72.42850000
C      -46.44820000     -32.27360000     -73.48170000
C      -44.63480000     -33.22740000     -72.40970000
H      -47.28020000     -31.58360000     -73.58260000
C      -44.84160000     -34.15650000     -73.46450000
C      -43.39390000     -33.54220000     -71.68250000
C      -42.71090000     -34.60680000     -72.26160000
S      -46.29040000     -33.75810000     -74.40660000
S      -43.68490000     -35.49230000     -73.48400000
H      -41.82600000     -35.08820000     -71.80490000
