40
Properties=species:S:1:pos:R:3 #=T CELL(abcABC):=T 1.889726e+02=T 90.00000=T Traj:=T positionsangstrom=T Step:=T 0=T Bead:=T pbc="F F F"
C      -45.96830000     -35.24390000     -69.81180000
C      -45.43610000     -34.35070000     -68.88690000
C      -45.99730000     -33.04170000     -68.82010000
C      -47.08020000     -32.65760000     -69.65030000
C      -47.64690000     -33.62550000     -70.50990000
C      -47.13650000     -34.90300000     -70.52470000
H      -45.66590000     -36.27370000     -69.92600000
H      -45.67660000     -32.41140000     -68.08450000
H      -48.42570000     -33.37900000     -71.09590000
H      -47.45230000     -35.63340000     -71.20680000
C      -47.75370000     -31.25990000     -69.66450000
H      -47.16320000     -30.50350000     -69.09350000
H      -48.74990000     -31.34620000     -69.26780000
C      -44.33990000     -34.76370000     -67.96610000
H      -43.94080000     -33.90540000     -67.36250000
H      -44.66700000     -35.54760000     -67.20520000
S      -47.96320000     -30.54480000     -71.37940000
S      -42.89400000     -35.50650000     -68.89890000
C      -46.33280000     -29.78680000     -71.70520000
H      -46.39380000     -29.26380000     -72.66770000
H      -46.07720000     -28.97570000     -71.09560000
C      -42.08330000     -34.02490000     -69.56600000
H      -41.18670000     -34.38460000     -70.03030000
H      -41.62020000     -33.40880000     -68.73670000
C      -42.91680000     -33.14180000     -70.53210000
H      -43.70060000     -32.76500000     -69.80810000
H      -42.23330000     -32.36450000     -70.88030000
C      -45.20150000     -30.79130000     -71.74040000
H      -44.97140000     -31.01740000     -70.68910000
H      -44.23200000     -30.28220000     -72.16690000
C      -45.38240000     -32.00160000     -72.67620000
C      -46.27710000     -32.09310000     -73.73960000
C      -44.63590000     -33.22080000     -72.56880000
H      -46.99380000     -31.34220000     -73.94050000
C      -45.06970000     -34.10040000     -73.56100000
C      -43.58910000     -33.76630000     -71.73300000
C      -43.15710000     -34.99700000     -72.19260000
S      -46.32720000     -33.58820000     -74.61140000
S      -43.99220000     -35.44080000     -73.70810000
H      -42.36300000     -35.58090000     -71.65100000
