40
Properties=species:S:1:pos:R:3 #=T CELL(abcABC):=T 1.889726e+02=T 90.00000=T Traj:=T positionsangstrom=T Step:=T 0=T Bead:=T pbc="F F F"
C      -44.89080000     -35.26380000     -69.66070000
C      -45.09040000     -34.03790000     -68.98750000
C      -46.30910000     -33.35910000     -69.12370000
C      -47.28360000     -33.71800000     -70.04250000
C      -47.05940000     -34.86990000     -70.79450000
C      -45.87100000     -35.66170000     -70.56980000
H      -44.05970000     -35.78380000     -69.53410000
H      -46.45840000     -32.56600000     -68.53360000
H      -47.77720000     -35.27420000     -71.53330000
H      -45.65360000     -36.53700000     -71.15390000
C      -48.62800000     -32.88310000     -70.12930000
H      -48.80740000     -32.18160000     -69.35220000
H      -49.40190000     -33.66530000     -70.06900000
C      -44.11770000     -33.57860000     -67.90090000
H      -44.57370000     -32.71050000     -67.45310000
H      -43.88970000     -34.38200000     -67.12100000
S      -49.00640000     -32.16360000     -71.84710000
S      -42.40630000     -33.03690000     -68.41510000
C      -47.80450000     -30.83530000     -72.08220000
H      -48.26770000     -30.25130000     -72.87590000
H      -47.80270000     -30.27780000     -71.15350000
C      -42.59820000     -31.58090000     -69.50900000
H      -41.58810000     -31.44690000     -69.95650000
H      -42.76550000     -30.65210000     -68.93540000
C      -43.66530000     -31.75840000     -70.66830000
H      -44.68340000     -31.75190000     -70.15690000
H      -43.73870000     -30.76820000     -71.19920000
C      -46.24670000     -31.09350000     -72.39230000
H      -45.75650000     -30.99310000     -71.40550000
H      -45.90600000     -30.22820000     -72.95140000
C      -45.95290000     -32.47830000     -72.96540000
C      -46.63180000     -33.13600000     -73.98740000
C      -44.74250000     -33.17030000     -72.55960000
H      -47.53270000     -32.73830000     -74.48250000
C      -44.52470000     -34.29500000     -73.27930000
C      -43.69590000     -32.96130000     -71.60380000
C      -42.69160000     -33.83630000     -71.68300000
S      -45.75030000     -34.54730000     -74.54230000
S      -43.05910000     -35.12370000     -72.88190000
H      -41.77390000     -33.90970000     -71.13410000
