40
Properties=species:S:1:pos:R:3 #=T CELL(abcABC):=T 1.889726e+02=T 90.00000=T Traj:=T positionsangstrom=T Step:=T 0=T Bead:=T pbc="F F F"
C      -45.58910000     -35.39660000     -69.72170000
C      -45.36890000     -34.36360000     -68.75330000
C      -46.17140000     -33.20040000     -68.73320000
C      -47.34200000     -33.14940000     -69.52600000
C      -47.64220000     -34.27130000     -70.37530000
C      -46.75650000     -35.38870000     -70.53290000
H      -44.92500000     -36.19390000     -69.85090000
H      -45.92550000     -32.38590000     -68.00090000
H      -48.58670000     -34.34250000     -70.89120000
H      -46.86320000     -36.16560000     -71.28250000
C      -48.22740000     -31.89780000     -69.59880000
H      -47.80820000     -31.00870000     -69.25100000
H      -49.11150000     -32.01810000     -68.98090000
C      -44.18850000     -34.32720000     -67.80060000
H      -44.17010000     -33.35950000     -67.28790000
H      -44.37860000     -35.06780000     -66.94700000
S      -48.62950000     -31.56250000     -71.37680000
S      -42.55670000     -34.65620000     -68.64890000
C      -47.35630000     -30.27140000     -71.95440000
H      -47.58800000     -30.02300000     -73.02680000
H      -47.45070000     -29.43260000     -71.31750000
C      -42.05350000     -33.17560000     -69.61430000
H      -41.22700000     -33.56840000     -70.15010000
H      -41.66170000     -32.40200000     -68.80610000
C      -43.07330000     -32.49980000     -70.54710000
H      -44.10190000     -32.28970000     -70.18970000
H      -42.64680000     -31.47690000     -70.78930000
C      -45.91420000     -30.88510000     -71.89700000
H      -45.77250000     -31.07840000     -70.82190000
H      -45.17330000     -30.12930000     -72.21370000
C      -45.70650000     -32.09900000     -72.71700000
C      -46.58830000     -32.43060000     -73.71880000
C      -44.49750000     -32.96820000     -72.69510000
H      -47.54570000     -32.05330000     -74.06700000
C      -44.58570000     -33.85540000     -73.76400000
C      -43.34860000     -33.25650000     -71.82070000
C      -42.66930000     -34.39180000     -72.25760000
S      -46.04050000     -33.76410000     -74.77070000
S      -43.38190000     -35.09730000     -73.71220000
H      -41.84130000     -34.69750000     -71.74690000
