40
Properties=species:S:1:pos:R:3 #=T CELL(abcABC):=T 1.889726e+02=T 90.00000=T Traj:=T positionsangstrom=T Step:=T 0=T Bead:=T pbc="F F F"
C      -46.12490000     -31.80740000     -67.55070000
C      -45.51530000     -33.00100000     -67.92180000
C      -44.21380000     -33.09590000     -68.39280000
C      -43.53720000     -31.88290000     -68.72140000
C      -44.17980000     -30.64650000     -68.53080000
C      -45.42190000     -30.62110000     -67.86060000
H      -47.15060000     -31.94260000     -67.17680000
H      -43.81840000     -34.09620000     -68.50050000
H      -43.75990000     -29.64230000     -68.76600000
H      -45.77480000     -29.64230000     -67.59970000
C      -41.95820000     -31.95200000     -69.09890000
H      -41.39050000     -32.21100000     -68.16910000
H      -41.61800000     -30.98260000     -69.46480000
C      -46.23020000     -34.23960000     -67.57580000
H      -45.51790000     -34.98620000     -67.70130000
H      -46.60080000     -34.23420000     -66.56730000
S      -41.67990000     -33.26210000     -70.42250000
S      -47.70380000     -34.59290000     -68.67780000
C      -42.79090000     -32.89040000     -71.82790000
H      -43.51230000     -32.15800000     -71.43120000
H      -42.14080000     -32.39100000     -72.56420000
C      -46.98560000     -34.68760000     -70.30750000
H      -47.55970000     -35.29260000     -70.96390000
H      -46.08280000     -35.18040000     -70.23590000
C      -46.64330000     -33.32690000     -70.99650000
H      -47.23940000     -32.48340000     -70.64000000
H      -45.58470000     -33.04030000     -70.73390000
C      -43.56990000     -34.17670000     -72.12550000
H      -44.22870000     -34.41910000     -71.27260000
H      -42.94330000     -35.05670000     -72.15630000
C      -44.43810000     -34.13190000     -73.40270000
C      -43.98140000     -34.59480000     -74.61150000
C      -45.86980000     -33.80540000     -73.46470000
H      -42.98330000     -34.96790000     -74.75830000
C      -46.33320000     -33.88690000     -74.74100000
C      -46.83150000     -33.38300000     -72.50850000
C      -48.05120000     -33.13390000     -73.12410000
S      -45.13780000     -34.37160000     -75.91030000
S      -48.05220000     -33.57760000     -74.85220000
H      -48.82040000     -32.49180000     -72.74350000
