40
Properties=species:S:1:pos:R:3 #=T CELL(abcABC):=T 1.889726e+02=T 90.00000=T Traj:=T positionsangstrom=T Step:=T 0=T Bead:=T pbc="F F F"
C      -44.70380000     -34.51180000     -69.20990000
C      -45.20030000     -33.26650000     -68.82290000
C      -46.51370000     -32.96230000     -69.17350000
C      -47.34310000     -33.84260000     -69.92160000
C      -46.75000000     -35.03280000     -70.35070000
C      -45.48310000     -35.43060000     -69.87450000
H      -43.68810000     -34.69420000     -68.86510000
H      -47.04620000     -32.05730000     -68.84430000
H      -47.37770000     -35.78720000     -70.89120000
H      -45.03620000     -36.34520000     -70.13250000
C      -48.76930000     -33.43110000     -70.15190000
H      -49.13810000     -32.61570000     -69.51960000
H      -49.46570000     -34.29110000     -69.98470000
C      -44.45000000     -32.20130000     -68.03240000
H      -45.04120000     -31.27190000     -67.95850000
H      -44.40980000     -32.53250000     -67.01160000
S      -49.25280000     -33.19730000     -71.89040000
S      -42.71610000     -31.95820000     -68.63350000
C      -48.30890000     -31.88280000     -72.70780000
H      -48.60440000     -31.94880000     -73.77540000
H      -48.55760000     -30.92740000     -72.29000000
C      -42.92520000     -30.90340000     -70.12160000
H      -41.94840000     -30.83780000     -70.59250000
H      -42.97440000     -29.84030000     -69.80150000
C      -43.94710000     -31.32470000     -71.16320000
H      -44.94690000     -31.47090000     -70.75130000
H      -44.06170000     -30.52830000     -71.88820000
C      -46.75070000     -31.84320000     -72.56370000
H      -46.51280000     -31.55370000     -71.54850000
H      -46.38040000     -31.12560000     -73.28610000
C      -46.06210000     -33.11060000     -72.99080000
C      -46.56590000     -34.19110000     -73.68600000
C      -44.61320000     -33.27520000     -72.68830000
H      -47.58750000     -34.34070000     -74.00830000
C      -44.15740000     -34.45340000     -73.25380000
C      -43.61710000     -32.55610000     -71.88390000
C      -42.39130000     -33.24970000     -71.88780000
S      -45.34260000     -35.39930000     -74.01330000
S      -42.51120000     -34.73750000     -72.83570000
H      -41.45080000     -33.05510000     -71.32700000
