40
Properties=species:S:1:pos:R:3 #=T CELL(abcABC):=T 1.889726e+02=T 90.00000=T Traj:=T positionsangstrom=T Step:=T 0=T Bead:=T pbc="F F F"
C      -44.62380000     -31.26770000     -75.13560000
C      -44.28930000     -32.51120000     -74.58540000
C      -45.32970000     -33.47590000     -74.35820000
C      -46.67910000     -33.13220000     -74.56390000
C      -46.99330000     -31.84380000     -75.12710000
C      -45.98890000     -30.96260000     -75.41170000
H      -43.83640000     -30.56050000     -75.10370000
H      -45.17060000     -34.51050000     -74.09390000
H      -48.02080000     -31.77280000     -75.44120000
H      -46.26010000     -30.01290000     -75.76230000
C      -47.80400000     -34.05030000     -74.19030000
H      -47.44770000     -35.01260000     -73.82840000
H      -48.51940000     -34.13830000     -74.98150000
C      -42.88600000     -32.91940000     -74.19160000
H      -42.58750000     -33.74640000     -74.82720000
H      -42.06560000     -32.13570000     -74.15500000
S      -48.82610000     -33.19470000     -72.73390000
S      -42.87210000     -33.64420000     -72.52720000
C      -47.49020000     -33.02820000     -71.55790000
H      -46.81130000     -32.22170000     -71.87480000
H      -47.95160000     -32.70140000     -70.67290000
C      -42.96830000     -32.05850000     -71.61230000
H      -42.88900000     -31.28540000     -72.37790000
H      -42.01130000     -32.02580000     -71.07250000
C      -44.11860000     -31.90400000     -70.62130000
H      -44.05730000     -30.88980000     -70.19490000
H      -45.02500000     -31.84480000     -71.17310000
C      -46.53600000     -34.20530000     -71.20840000
H      -45.60940000     -34.12490000     -71.78650000
H      -47.05810000     -35.11120000     -71.51220000
C      -46.23090000     -34.38740000     -69.76870000
C      -46.75090000     -35.38200000     -68.93680000
C      -45.11330000     -33.76560000     -69.05960000
H      -47.65910000     -36.01530000     -69.13790000
C      -44.84350000     -34.36050000     -67.82500000
C      -44.10510000     -32.83740000     -69.47870000
C      -43.12750000     -32.71820000     -68.54600000
S      -45.99770000     -35.61310000     -67.35900000
S      -43.41130000     -33.68120000     -67.05430000
H      -42.24840000     -32.04370000     -68.55390000
