40
Properties=species:S:1:pos:R:3 #=T CELL(abcABC):=T 1.889726e+02=T 90.00000=T Traj:=T positionsangstrom=T Step:=T 0=T Bead:=T pbc="F F F"
C      -45.05730000     -34.45780000     -69.24570000
C      -45.37140000     -33.17390000     -68.80240000
C      -46.65130000     -32.64370000     -69.07760000
C      -47.54480000     -33.43840000     -69.75740000
C      -47.20790000     -34.77950000     -70.11470000
C      -45.91690000     -35.23910000     -70.02670000
H      -43.98350000     -34.76430000     -69.17870000
H      -47.06140000     -31.71520000     -68.73700000
H      -47.92780000     -35.42090000     -70.56720000
H      -45.62310000     -36.20860000     -70.41020000
C      -48.89040000     -33.01720000     -70.16060000
H      -48.96080000     -31.97000000     -69.91770000
H      -49.63260000     -33.61460000     -69.64230000
C      -44.39610000     -32.43100000     -67.93810000
H      -44.63720000     -31.35980000     -67.89820000
H      -44.35030000     -32.84500000     -66.92840000
S      -49.19630000     -33.34290000     -71.93270000
S      -42.63130000     -32.46140000     -68.58920000
C      -48.36540000     -31.88280000     -72.68010000
H      -48.53690000     -31.76580000     -73.73160000
H      -48.72290000     -30.90800000     -72.23180000
C      -42.54900000     -31.14410000     -69.91580000
H      -41.46370000     -31.13170000     -70.17300000
H      -42.69990000     -30.14820000     -69.42840000
C      -43.56590000     -31.33080000     -71.06040000
H      -44.53540000     -31.32000000     -70.60190000
H      -43.58780000     -30.49200000     -71.74640000
C      -46.80140000     -31.91130000     -72.46580000
H      -46.60300000     -31.73870000     -71.40730000
H      -46.39510000     -30.97170000     -72.86150000
C      -45.95490000     -33.06870000     -72.91480000
C      -46.47960000     -33.99250000     -73.75930000
C      -44.59140000     -33.34100000     -72.51990000
H      -47.43570000     -34.00200000     -74.24480000
C      -44.15310000     -34.50080000     -73.14450000
C      -43.47840000     -32.60440000     -71.91540000
C      -42.29030000     -33.26440000     -72.12350000
S      -45.26000000     -35.23600000     -74.21090000
S      -42.48890000     -34.77820000     -72.99810000
H      -41.40250000     -32.97840000     -71.64740000
