40
Properties=species:S:1:pos:R:3 #=T CELL(abcABC):=T 1.889726e+02=T 90.00000=T Traj:=T positionsangstrom=T Step:=T 0=T Bead:=T pbc="F F F"
C      -43.86280000     -31.61950000     -74.67300000
C      -44.06390000     -32.99110000     -74.58450000
C      -45.38860000     -33.49940000     -74.48610000
C      -46.53350000     -32.60550000     -74.44290000
C      -46.24560000     -31.21450000     -74.54470000
C      -44.94570000     -30.74880000     -74.54720000
H      -42.83700000     -31.24880000     -74.62990000
H      -45.57440000     -34.50960000     -74.16080000
H      -47.05110000     -30.47100000     -74.32560000
H      -44.71040000     -29.70350000     -74.63650000
C      -47.98600000     -33.09980000     -74.30930000
H      -48.03230000     -34.15160000     -74.50250000
H      -48.70060000     -32.54220000     -74.94460000
C      -42.89870000     -33.90130000     -74.35830000
H      -43.05390000     -34.91980000     -74.80480000
H      -41.99240000     -33.48400000     -74.83110000
S      -48.80620000     -32.71260000     -72.67160000
S      -42.57070000     -34.44160000     -72.65400000
C      -47.68290000     -32.89520000     -71.25020000
H      -46.86570000     -32.31450000     -71.58130000
H      -48.28800000     -32.50350000     -70.42340000
C      -42.83150000     -32.82070000     -71.76330000
H      -42.55870000     -32.00160000     -72.43440000
H      -42.05470000     -32.76420000     -70.96530000
C      -44.27360000     -32.61480000     -71.22360000
H      -44.50030000     -31.54740000     -71.37000000
H      -44.99210000     -33.15570000     -71.84920000
C      -47.26380000     -34.38670000     -70.99500000
H      -46.66080000     -34.59440000     -71.86240000
H      -48.14200000     -35.09280000     -71.07680000
C      -46.48690000     -34.59130000     -69.73750000
C      -46.87020000     -35.48560000     -68.82830000
C      -45.32080000     -33.85370000     -69.30700000
H      -47.66920000     -36.22710000     -68.87010000
C      -45.13220000     -34.03560000     -67.91960000
C      -44.36960000     -32.92100000     -69.80180000
C      -43.46440000     -32.53460000     -68.84310000
S      -46.04740000     -35.31560000     -67.32500000
S      -43.74890000     -33.18990000     -67.24290000
H      -42.51330000     -31.96560000     -69.01970000
