40
Properties=species:S:1:pos:R:3 #=T CELL(abcABC):=T 1.889726e+02=T 90.00000=T Traj:=T positionsangstrom=T Step:=T 0=T Bead:=T pbc="F F F"
C      -45.20980000     -34.98780000     -69.24250000
C      -45.39560000     -33.66770000     -68.62770000
C      -46.48200000     -32.92240000     -69.01010000
C      -47.47140000     -33.51590000     -69.87240000
C      -47.35600000     -34.80710000     -70.30530000
C      -46.19250000     -35.49410000     -70.05280000
H      -44.23930000     -35.57170000     -69.18220000
H      -46.51960000     -31.84420000     -68.72720000
H      -48.10280000     -35.13540000     -70.90570000
H      -46.10880000     -36.45170000     -70.53520000
C      -48.54230000     -32.60350000     -70.37140000
H      -48.44040000     -31.56370000     -69.99080000
H      -49.49970000     -32.92950000     -69.90350000
C      -44.27450000     -33.10560000     -67.72700000
H      -44.69840000     -32.24090000     -67.26870000
H      -44.10830000     -33.83530000     -66.85900000
S      -49.08250000     -32.67270000     -72.11020000
S      -42.58680000     -32.89830000     -68.53570000
C      -48.04110000     -31.42270000     -72.94030000
H      -48.27790000     -31.25950000     -73.96270000
H      -48.38510000     -30.44240000     -72.49170000
C      -42.88690000     -31.40580000     -69.51410000
H      -41.91360000     -31.14830000     -69.87630000
H      -43.35270000     -30.59680000     -68.93740000
C      -43.80020000     -31.49180000     -70.78600000
H      -44.86690000     -31.60080000     -70.50590000
H      -43.74040000     -30.56550000     -71.38690000
C      -46.53090000     -31.52430000     -72.63620000
H      -46.35460000     -31.37130000     -71.55250000
H      -46.05390000     -30.71250000     -73.15870000
C      -45.85380000     -32.77880000     -73.12010000
C      -46.46130000     -33.61430000     -73.92400000
C      -44.54160000     -33.19690000     -72.64200000
H      -47.40550000     -33.48100000     -74.42930000
C      -44.16060000     -34.34980000     -73.33170000
C      -43.59370000     -32.71430000     -71.72720000
C      -42.40570000     -33.43850000     -71.76890000
S      -45.36010000     -35.00390000     -74.34880000
S      -42.56880000     -34.91280000     -72.76500000
H      -41.58480000     -33.35630000     -71.04160000
