40
Properties=species:S:1:pos:R:3 #=T CELL(abcABC):=T 1.889726e+02=T 90.00000=T Traj:=T positionsangstrom=T Step:=T 0=T Bead:=T pbc="F F F"
C      -44.56360000     -33.98710000     -68.85360000
C      -45.19300000     -32.73080000     -68.62330000
C      -46.52920000     -32.56830000     -68.92830000
C      -47.27510000     -33.70840000     -69.38650000
C      -46.71080000     -34.94330000     -69.42420000
C      -45.30230000     -35.13570000     -69.17020000
H      -43.50100000     -34.03450000     -68.80730000
H      -46.95370000     -31.57220000     -68.99360000
H      -47.40930000     -35.71290000     -69.65720000
H      -44.86730000     -36.16290000     -69.30640000
C      -48.72800000     -33.53840000     -69.82660000
H      -49.13150000     -32.58960000     -69.61960000
H      -49.36210000     -34.20460000     -69.30140000
C      -44.34200000     -31.48600000     -68.17640000
H      -44.85070000     -30.52210000     -68.16520000
H      -43.84300000     -31.62170000     -67.20610000
S      -48.96140000     -34.08530000     -71.63500000
S      -42.75660000     -31.32170000     -69.16740000
C      -48.61200000     -32.60600000     -72.70760000
H      -49.07490000     -32.89120000     -73.69930000
H      -49.11040000     -31.72630000     -72.39470000
C      -43.12160000     -30.49150000     -70.77740000
H      -42.14630000     -30.44550000     -71.22380000
H      -43.37850000     -29.42360000     -70.64350000
C      -44.12270000     -31.04400000     -71.84850000
H      -45.10600000     -31.00710000     -71.32660000
H      -44.18750000     -30.31840000     -72.64560000
C      -47.09200000     -32.26550000     -72.79610000
H      -46.83030000     -31.73120000     -71.82010000
H      -46.92600000     -31.51690000     -73.57880000
C      -46.20910000     -33.47680000     -73.25320000
C      -46.56890000     -34.68730000     -73.84090000
C      -44.76140000     -33.41070000     -72.97580000
H      -47.57390000     -35.04520000     -74.03730000
C      -44.11770000     -34.61050000     -73.26260000
C      -43.80420000     -32.46040000     -72.27780000
C      -42.53670000     -33.04210000     -72.09860000
S      -45.20100000     -35.80400000     -73.90980000
S      -42.46150000     -34.62820000     -72.70220000
H      -41.67460000     -32.50880000     -71.78610000
