40
Properties=species:S:1:pos:R:3 #=T CELL(abcABC):=T 1.889726e+02=T 90.00000=T Traj:=T positionsangstrom=T Step:=T 0=T Bead:=T pbc="F F F"
C      -44.48920000     -33.84550000     -68.72000000
C      -45.04200000     -32.57240000     -68.80450000
C      -46.36610000     -32.51280000     -69.24660000
C      -47.13180000     -33.59190000     -69.58250000
C      -46.61290000     -34.92190000     -69.27800000
C      -45.28360000     -35.01530000     -68.86730000
H      -43.45630000     -33.99920000     -68.39530000
H      -46.72170000     -31.47050000     -69.40910000
H      -47.19690000     -35.76100000     -69.58610000
H      -44.81410000     -36.00110000     -68.72900000
C      -48.60910000     -33.50680000     -70.00440000
H      -48.92210000     -32.47050000     -70.11690000
H      -49.22750000     -33.92190000     -69.20270000
C      -44.25630000     -31.35510000     -68.35420000
H      -44.72870000     -30.35280000     -68.24840000
H      -44.00470000     -31.48340000     -67.28590000
S      -49.18520000     -34.20310000     -71.66010000
S      -42.64950000     -31.27240000     -69.24050000
C      -48.71810000     -32.83870000     -72.76030000
H      -48.88590000     -33.02080000     -73.77950000
H      -49.37540000     -31.96290000     -72.56020000
C      -42.99670000     -30.49200000     -70.84270000
H      -42.08200000     -30.47700000     -71.41350000
H      -43.33650000     -29.46090000     -70.66490000
C      -44.08870000     -31.17800000     -71.62540000
H      -45.06050000     -31.09850000     -71.11490000
H      -44.19690000     -30.59950000     -72.58450000
C      -47.21070000     -32.46680000     -72.62970000
H      -46.89080000     -32.11590000     -71.68630000
H      -47.02340000     -31.62010000     -73.35160000
C      -46.26320000     -33.56550000     -72.94220000
C      -46.63000000     -34.76640000     -73.45150000
C      -44.79950000     -33.51300000     -72.69050000
H      -47.58380000     -34.98030000     -73.91290000
C      -44.18750000     -34.61240000     -73.25850000
C      -43.89990000     -32.57940000     -72.11010000
C      -42.58400000     -33.04010000     -72.11130000
S      -45.25680000     -35.74220000     -73.97300000
S      -42.46660000     -34.54610000     -72.91120000
H      -41.78610000     -32.47620000     -71.68520000
