40
Properties=species:S:1:pos:R:3 #=T CELL(abcABC):=T 1.889726e+02=T 90.00000=T Traj:=T positionsangstrom=T Step:=T 0=T Bead:=T pbc="F F F"
C      -43.68110000     -31.52650000     -74.30570000
C      -43.89440000     -32.90720000     -74.47900000
C      -45.17850000     -33.40080000     -74.43610000
C      -46.32740000     -32.56510000     -74.38320000
C      -46.10860000     -31.17130000     -74.24780000
C      -44.81430000     -30.67610000     -74.17070000
H      -42.70740000     -31.07090000     -74.43150000
H      -45.39390000     -34.48450000     -74.47390000
H      -46.96760000     -30.53160000     -74.14970000
H      -44.75360000     -29.61970000     -74.20340000
C      -47.68520000     -33.12370000     -74.37500000
H      -47.63260000     -34.24110000     -74.35160000
H      -48.20520000     -32.77080000     -75.30530000
C      -42.76560000     -33.86090000     -74.50540000
H      -42.75980000     -34.56590000     -75.34400000
H      -41.80740000     -33.43280000     -74.54310000
S      -48.71390000     -32.44740000     -73.00030000
S      -42.79280000     -34.97240000     -72.95020000
C      -47.69720000     -32.77490000     -71.39430000
H      -46.83930000     -32.11870000     -71.48560000
H      -48.33850000     -32.47060000     -70.58650000
C      -42.57430000     -33.74370000     -71.59610000
H      -41.66850000     -33.18890000     -71.73480000
H      -42.29750000     -34.39860000     -70.73790000
C      -43.83700000     -32.81150000     -71.19120000
H      -43.45680000     -31.78200000     -71.34770000
H      -44.66070000     -33.10370000     -71.91020000
C      -47.23530000     -34.22720000     -71.18340000
H      -46.61620000     -34.54190000     -72.01230000
H      -48.08490000     -34.86310000     -71.17260000
C      -46.61280000     -34.38060000     -69.76540000
C      -47.40230000     -34.96620000     -68.77180000
C      -45.34550000     -33.83300000     -69.31250000
H      -48.31020000     -35.50870000     -68.86420000
C      -45.29110000     -33.97800000     -67.93560000
C      -44.20500000     -33.05800000     -69.75630000
C      -43.31080000     -32.70430000     -68.71620000
S      -46.60200000     -34.80780000     -67.17350000
S      -43.79060000     -33.41360000     -67.20480000
H      -42.30480000     -32.40730000     -68.76920000
