40
Properties=species:S:1:pos:R:3 #=T CELL(abcABC):=T 1.889726e+02=T 90.00000=T Traj:=T positionsangstrom=T Step:=T 0=T Bead:=T pbc="F F F"
C      -44.52750000     -34.41930000     -68.92390000
C      -45.05360000     -33.10950000     -68.78320000
C      -46.39110000     -32.84180000     -69.12850000
C      -47.17330000     -33.80360000     -69.76130000
C      -46.60640000     -35.06840000     -69.93990000
C      -45.33180000     -35.36450000     -69.45590000
H      -43.45080000     -34.54980000     -68.54960000
H      -46.91100000     -31.90310000     -68.95440000
H      -47.26740000     -35.86630000     -70.32760000
H      -44.95360000     -36.32880000     -69.65340000
C      -48.63550000     -33.32510000     -70.15080000
H      -48.64380000     -32.22170000     -69.91220000
H      -49.32080000     -33.80900000     -69.45170000
C      -44.28090000     -32.05900000     -68.10610000
H      -44.84920000     -31.15650000     -67.88940000
H      -43.82970000     -32.44800000     -67.22260000
S      -49.34940000     -33.78860000     -71.80950000
S      -42.64510000     -31.54100000     -68.92030000
C      -48.61830000     -32.44040000     -72.92200000
H      -48.77180000     -32.67750000     -73.99870000
H      -49.19460000     -31.55130000     -72.74650000
C      -43.06730000     -30.61870000     -70.45390000
H      -42.13200000     -30.39950000     -71.02700000
H      -43.32170000     -29.58960000     -70.11690000
C      -44.11860000     -31.15190000     -71.35800000
H      -45.03420000     -31.32460000     -70.73190000
H      -44.38250000     -30.38680000     -72.12800000
C      -47.14520000     -32.05480000     -72.73830000
H      -46.92930000     -31.77570000     -71.70630000
H      -46.89910000     -31.18380000     -73.38440000
C      -46.15940000     -33.25470000     -72.98430000
C      -46.55460000     -34.42490000     -73.61100000
C      -44.71140000     -33.21530000     -72.78700000
H      -47.56790000     -34.67960000     -73.85100000
C      -44.12190000     -34.46780000     -73.15380000
C      -43.76910000     -32.47010000     -72.02020000
C      -42.51370000     -33.02940000     -71.98350000
S      -45.26390000     -35.52560000     -73.99180000
S      -42.45330000     -34.59340000     -72.70910000
H      -41.59280000     -32.56720000     -71.63890000
