40
Properties=species:S:1:pos:R:3 #=T CELL(abcABC):=T 1.889726e+02=T 90.00000=T Traj:=T positionsangstrom=T Step:=T 0=T Bead:=T pbc="F F F"
C      -44.38600000     -33.85820000     -68.84000000
C      -44.93940000     -32.58930000     -68.80350000
C      -46.36320000     -32.44560000     -69.04400000
C      -47.18670000     -33.53300000     -69.39910000
C      -46.57040000     -34.80370000     -69.43480000
C      -45.22940000     -34.92120000     -69.14560000
H      -43.40310000     -34.17860000     -68.48060000
H      -46.72790000     -31.42520000     -69.04370000
H      -47.15270000     -35.75160000     -69.62020000
H      -44.70410000     -35.94170000     -69.11940000
C      -48.63700000     -33.19830000     -69.78030000
H      -48.72920000     -32.10430000     -69.96540000
H      -49.34680000     -33.43270000     -68.99100000
C      -44.11860000     -31.37360000     -68.41230000
H      -44.66740000     -30.44440000     -68.35340000
H      -43.61590000     -31.43260000     -67.43890000
S      -49.27190000     -34.22950000     -71.23650000
S      -42.61870000     -31.15360000     -69.53110000
C      -48.66290000     -33.13930000     -72.68190000
H      -48.81890000     -33.80460000     -73.55310000
H      -49.25690000     -32.17730000     -72.76210000
C      -43.34840000     -30.35400000     -71.01280000
H      -42.53990000     -30.27710000     -71.73310000
H      -43.69390000     -29.31520000     -70.73660000
C      -44.41100000     -31.16740000     -71.73270000
H      -45.22500000     -31.29870000     -71.02330000
H      -44.77060000     -30.58190000     -72.54940000
C      -47.22670000     -32.67150000     -72.63550000
H      -46.94310000     -32.22890000     -71.70230000
H      -47.08950000     -31.76850000     -73.31910000
C      -46.28050000     -33.73300000     -72.93060000
C      -46.55310000     -34.90750000     -73.51140000
C      -44.85850000     -33.53340000     -72.73340000
H      -47.56760000     -35.35650000     -73.66430000
C      -44.13760000     -34.67800000     -73.10130000
C      -43.93010000     -32.51830000     -72.24400000
C      -42.58910000     -32.86130000     -72.31010000
S      -45.12120000     -35.94680000     -73.77890000
S      -42.42880000     -34.45130000     -73.04640000
H      -41.68510000     -32.24630000     -72.13130000
