40
Properties=species:S:1:pos:R:3 #=T CELL(abcABC):=T 1.889726e+02=T 90.00000=T Traj:=T positionsangstrom=T Step:=T 0=T Bead:=T pbc="F F F"
C      -44.08140000     -33.81650000     -69.24200000
C      -44.79900000     -32.65870000     -69.00550000
C      -46.17250000     -32.55780000     -69.23810000
C      -46.87290000     -33.75690000     -69.58480000
C      -46.16980000     -34.96420000     -69.64450000
C      -44.80860000     -34.96620000     -69.61230000
H      -43.02840000     -33.81570000     -69.00870000
H      -46.62510000     -31.58410000     -69.20590000
H      -46.70010000     -35.96280000     -69.74910000
H      -44.21410000     -35.83120000     -69.66940000
C      -48.42130000     -33.76430000     -69.52100000
H      -48.80980000     -32.77870000     -69.23320000
H      -48.78630000     -34.48350000     -68.83870000
C      -44.02120000     -31.44960000     -68.51310000
H      -44.70740000     -30.59510000     -68.44120000
H      -43.44480000     -31.62380000     -67.58110000
S      -49.23090000     -34.41160000     -71.07510000
S      -42.67560000     -30.93890000     -69.73510000
C      -48.88130000     -32.98140000     -72.27260000
H      -49.41900000     -33.20620000     -73.17490000
H      -49.32130000     -32.10870000     -71.84900000
C      -43.55000000     -30.10510000     -71.13650000
H      -42.66160000     -29.76310000     -71.67460000
H      -44.00520000     -29.18170000     -70.74270000
C      -44.45640000     -30.99890000     -72.02840000
H      -45.54540000     -30.97090000     -71.64870000
H      -44.50440000     -30.48980000     -73.03150000
C      -47.40570000     -32.56970000     -72.50370000
H      -47.19970000     -31.97750000     -71.66690000
H      -47.25460000     -31.84310000     -73.30790000
C      -46.36400000     -33.64080000     -72.78080000
C      -46.75990000     -34.88830000     -73.32330000
C      -44.94770000     -33.47490000     -72.62250000
H      -47.69490000     -35.28030000     -73.62710000
C      -44.24260000     -34.65430000     -72.87160000
C      -44.00520000     -32.46650000     -72.26250000
C      -42.68240000     -32.82090000     -72.30050000
S      -45.32030000     -35.85290000     -73.60480000
S      -42.51370000     -34.48500000     -72.90240000
H      -41.85700000     -32.25780000     -72.04060000
