40
Properties=species:S:1:pos:R:3 #=T CELL(abcABC):=T 1.889726e+02=T 90.00000=T Traj:=T positionsangstrom=T Step:=T 0=T Bead:=T pbc="F F F"
C      -44.70230000     -36.12660000     -73.79540000
C      -46.04790000     -35.62430000     -73.76610000
C      -46.26420000     -34.40740000     -74.34500000
C      -45.22730000     -33.64250000     -75.00900000
C      -43.93070000     -34.22130000     -75.16800000
C      -43.69090000     -35.49910000     -74.52740000
H      -44.41600000     -37.05320000     -73.27900000
H      -47.26980000     -34.00470000     -74.27560000
H      -43.15600000     -33.66980000     -75.72160000
H      -42.61960000     -35.80730000     -74.49760000
C      -45.51570000     -32.27450000     -75.42320000
H      -46.34000000     -32.07810000     -76.10940000
H      -44.68220000     -31.84350000     -76.05040000
C      -47.19520000     -36.45280000     -73.29800000
H      -47.90830000     -36.67700000     -74.04800000
H      -46.88620000     -37.41760000     -72.86280000
S      -45.99650000     -31.05990000     -73.99250000
S      -48.03990000     -35.56800000     -71.89930000
C      -45.15110000     -31.92620000     -72.68070000
H      -45.56860000     -32.86000000     -72.42730000
H      -44.11130000     -32.02990000     -72.99840000
C      -46.82340000     -35.42960000     -70.49750000
H      -45.83260000     -35.63870000     -70.93600000
H      -46.95890000     -36.18270000     -69.73140000
C      -46.85210000     -34.02430000     -69.92140000
H      -46.92340000     -33.26390000     -70.72720000
H      -47.85290000     -33.94950000     -69.42730000
C      -45.25920000     -31.11080000     -71.36340000
H      -46.30500000     -31.14430000     -71.05630000
H      -44.95010000     -30.06940000     -71.46960000
C      -44.53440000     -31.57550000     -70.12050000
C      -43.49330000     -30.75610000     -69.71030000
C      -44.86410000     -32.48370000     -69.10820000
H      -43.17220000     -29.89930000     -70.33860000
C      -44.00520000     -32.46490000     -67.98070000
C      -45.76570000     -33.66030000     -68.99750000
C      -45.64770000     -34.24680000     -67.79980000
S      -42.93000000     -31.06960000     -68.12310000
S      -44.29110000     -33.68920000     -66.75570000
H      -46.30910000     -35.10310000     -67.49050000
