40
Properties=species:S:1:pos:R:3 #=T CELL(abcABC):=T 1.889726e+02=T 90.00000=T Traj:=T positionsangstrom=T Step:=T 0=T Bead:=T pbc="F F F"
C      -44.77010000     -36.17700000     -73.96490000
C      -46.09300000     -35.74420000     -73.77780000
C      -46.47960000     -34.50590000     -74.28860000
C      -45.49270000     -33.75030000     -74.94920000
C      -44.13700000     -34.12180000     -75.09290000
C      -43.80480000     -35.36690000     -74.57660000
H      -44.61310000     -37.18410000     -73.75270000
H      -47.44400000     -34.05310000     -74.27710000
H      -43.48540000     -33.49790000     -75.68260000
H      -42.90500000     -35.86020000     -74.98120000
C      -45.83540000     -32.40450000     -75.45290000
H      -46.93920000     -32.44020000     -75.78000000
H      -45.21310000     -31.94640000     -76.18230000
C      -47.15550000     -36.61390000     -73.01100000
H      -47.92750000     -36.95640000     -73.77710000
H      -46.67260000     -37.49470000     -72.61830000
S      -45.84720000     -31.16760000     -74.00550000
S      -48.07020000     -35.60630000     -71.80120000
C      -45.16650000     -32.01870000     -72.42640000
H      -45.59730000     -32.99120000     -72.29310000
H      -44.01610000     -32.11640000     -72.68630000
C      -46.62570000     -35.09010000     -70.79090000
H      -45.73500000     -34.88640000     -71.51340000
H      -46.28140000     -35.89880000     -70.11890000
C      -46.85890000     -33.95780000     -69.85320000
H      -47.16030000     -33.05870000     -70.40290000
H      -47.66200000     -34.16070000     -69.20100000
C      -45.53660000     -31.09980000     -71.22710000
H      -46.62280000     -31.19000000     -71.08020000
H      -45.37260000     -30.07050000     -71.56210000
C      -44.60250000     -31.44300000     -70.09700000
C      -43.66310000     -30.48450000     -69.61990000
C      -44.65540000     -32.54240000     -69.21010000
H      -43.32980000     -29.60070000     -70.16780000
C      -43.80470000     -32.50220000     -68.07420000
C      -45.63590000     -33.62310000     -68.97960000
C      -45.48560000     -34.24490000     -67.77810000
S      -42.80370000     -31.10340000     -68.24420000
S      -44.16940000     -33.60410000     -66.84830000
H      -46.04230000     -35.07870000     -67.34970000
