40
Properties=species:S:1:pos:R:3 #=T CELL(abcABC):=T 1.889726e+02=T 90.00000=T Traj:=T positionsangstrom=T Step:=T 0=T Bead:=T pbc="F F F"
C      -44.02210000     -33.61820000     -69.02740000
C      -44.81210000     -32.45260000     -68.89230000
C      -46.20600000     -32.48670000     -68.81770000
C      -46.85830000     -33.69250000     -69.09770000
C      -46.07500000     -34.84900000     -69.26370000
C      -44.69370000     -34.84730000     -69.27850000
H      -42.95140000     -33.54990000     -69.10420000
H      -46.77140000     -31.65200000     -68.51180000
H      -46.50600000     -35.80830000     -69.60270000
H      -44.10880000     -35.68500000     -69.63110000
C      -48.37730000     -33.76880000     -69.29060000
H      -48.97780000     -32.82230000     -69.39390000
H      -48.77810000     -34.38740000     -68.53660000
C      -44.02070000     -31.09070000     -68.67860000
H      -44.72000000     -30.26880000     -68.82630000
H      -43.50860000     -31.03960000     -67.68770000
S      -48.77530000     -34.64730000     -70.89680000
S      -42.82130000     -30.78830000     -70.02740000
C      -48.76620000     -33.27230000     -72.16930000
H      -49.15840000     -33.72090000     -73.10660000
H      -49.37760000     -32.49820000     -71.73240000
C      -43.87340000     -30.09600000     -71.38590000
H      -43.35440000     -29.40330000     -72.07590000
H      -44.59790000     -29.39310000     -70.92290000
C      -44.73930000     -31.06790000     -72.09450000
H      -45.54370000     -31.33710000     -71.41220000
H      -45.19080000     -30.61150000     -72.90500000
C      -47.42510000     -32.74970000     -72.46910000
H      -47.05060000     -32.26200000     -71.53380000
H      -47.55000000     -31.95440000     -73.25020000
C      -46.43690000     -33.81420000     -72.80100000
C      -46.72700000     -35.09210000     -73.22940000
C      -44.98630000     -33.54010000     -72.72420000
H      -47.63120000     -35.48250000     -73.40710000
C      -44.27460000     -34.69970000     -73.13370000
C      -44.16390000     -32.37580000     -72.53420000
C      -42.85510000     -32.64190000     -72.80110000
S      -45.27860000     -35.98600000     -73.61260000
S      -42.55260000     -34.40530000     -73.07200000
H      -41.94910000     -31.99520000     -72.80960000
