40
Properties=species:S:1:pos:R:3 #=T CELL(abcABC):=T 1.889726e+02=T 90.00000=T Traj:=T positionsangstrom=T Step:=T 0=T Bead:=T pbc="F F F"
C      -46.03170000     -37.06500000     -73.32860000
C      -45.85380000     -36.09680000     -72.35370000
C      -46.72190000     -35.00910000     -72.20460000
C      -47.80380000     -34.84180000     -73.04010000
C      -47.98920000     -35.83840000     -74.08160000
C      -47.08030000     -36.86520000     -74.26500000
H      -45.16210000     -37.70830000     -73.55840000
H      -46.49610000     -34.18360000     -71.53730000
H      -48.83580000     -35.70680000     -74.77310000
H      -47.21650000     -37.56350000     -75.01590000
C      -48.77940000     -33.67730000     -73.00620000
H      -49.33090000     -33.62000000     -72.05410000
H      -49.59260000     -33.95070000     -73.65680000
C      -44.70460000     -36.18460000     -71.46720000
H      -44.86550000     -35.84000000     -70.42080000
H      -44.41580000     -37.28130000     -71.37050000
S      -48.12070000     -31.99160000     -73.50660000
S      -43.05770000     -35.51540000     -72.22610000
C      -47.50540000     -31.44090000     -71.84510000
H      -48.00550000     -30.49040000     -71.51840000
H      -47.75160000     -32.25290000     -71.16770000
C      -43.44770000     -33.75990000     -72.87750000
H      -44.53630000     -33.68690000     -73.06520000
H      -42.81170000     -33.62460000     -73.84260000
C      -42.94080000     -32.49950000     -72.15720000
H      -41.90360000     -32.40440000     -72.43260000
H      -43.49350000     -31.64640000     -72.50740000
C      -45.96660000     -31.08200000     -71.86900000
H      -45.88900000     -30.00270000     -72.25230000
H      -45.35840000     -31.68690000     -72.63500000
C      -45.42520000     -31.17850000     -70.45000000
C      -46.18780000     -30.87790000     -69.31530000
C      -44.20700000     -31.81880000     -70.00220000
H      -47.13560000     -30.44220000     -69.43230000
C      -44.14720000     -31.97930000     -68.61840000
C      -43.07630000     -32.45210000     -70.70650000
C      -42.14650000     -32.98740000     -69.79570000
S      -45.49160000     -31.26620000     -67.77970000
S      -42.61050000     -32.81580000     -68.12280000
H      -41.24080000     -33.41070000     -70.05920000
