40
Properties=species:S:1:pos:R:3 #=T CELL(abcABC):=T 1.889726e+02=T 90.00000=T Traj:=T positionsangstrom=T Step:=T 0=T Bead:=T pbc="F F F"
C      -43.84190000     -33.49550000     -68.90230000
C      -44.53830000     -32.29090000     -69.12020000
C      -45.95960000     -32.40220000     -69.41450000
C      -46.59730000     -33.67030000     -69.30920000
C      -45.85430000     -34.87330000     -69.24040000
C      -44.44360000     -34.71730000     -68.99410000
H      -42.78210000     -33.39210000     -68.70360000
H      -46.49920000     -31.41510000     -69.37560000
H      -46.31540000     -35.81170000     -69.39920000
H      -43.81760000     -35.59490000     -68.84300000
C      -48.12400000     -33.66280000     -69.18110000
H      -48.44090000     -32.58100000     -69.08320000
H      -48.49730000     -34.14680000     -68.20230000
C      -43.98850000     -30.91880000     -68.83510000
H      -44.80070000     -30.16250000     -68.78810000
H      -43.53290000     -31.03530000     -67.86670000
S      -49.04690000     -34.71000000     -70.35650000
S      -42.60720000     -30.49080000     -69.97460000
C      -49.06170000     -33.62330000     -71.92450000
H      -49.53160000     -34.20380000     -72.69580000
H      -49.73160000     -32.76050000     -71.73600000
C      -43.69430000     -30.08750000     -71.38190000
H      -42.99700000     -29.66270000     -72.14060000
H      -44.27420000     -29.17510000     -71.23640000
C      -44.68840000     -31.12110000     -72.00590000
H      -45.51340000     -31.29330000     -71.31170000
H      -45.13740000     -30.65470000     -72.85640000
C      -47.67950000     -33.10070000     -72.36390000
H      -47.38500000     -32.49170000     -71.50360000
H      -47.88900000     -32.39090000     -73.20350000
C      -46.56060000     -33.99700000     -72.83380000
C      -46.80310000     -35.24820000     -73.31100000
C      -45.15590000     -33.65770000     -72.74310000
H      -47.82070000     -35.64350000     -73.40100000
C      -44.38310000     -34.72110000     -73.15250000
C      -44.27280000     -32.51070000     -72.42370000
C      -42.94030000     -32.73520000     -72.68120000
S      -45.35360000     -36.00280000     -73.93800000
S      -42.71330000     -34.34700000     -73.34520000
H      -42.07960000     -32.16350000     -72.38490000
