40
Properties=species:S:1:pos:R:3 #=T CELL(abcABC):=T 1.889726e+02=T 90.00000=T Traj:=T positionsangstrom=T Step:=T 0=T Bead:=T pbc="F F F"
C      -45.45010000     -36.33640000     -73.97440000
C      -46.75310000     -35.74380000     -73.87010000
C      -46.96010000     -34.37380000     -74.29480000
C      -45.80030000     -33.70600000     -74.80940000
C      -44.48660000     -34.26340000     -74.83580000
C      -44.37840000     -35.62290000     -74.54050000
H      -45.17560000     -37.33900000     -73.73950000
H      -47.91580000     -33.93090000     -74.39530000
H      -43.63680000     -33.59090000     -75.19530000
H      -43.43110000     -35.95940000     -74.53200000
C      -46.02840000     -32.28700000     -75.27800000
H      -46.93190000     -32.15010000     -75.89390000
H      -45.05760000     -31.89220000     -75.69630000
C      -47.80990000     -36.49090000     -73.07960000
H      -48.77620000     -36.25130000     -73.45360000
H      -47.65800000     -37.58070000     -73.21750000
S      -46.52500000     -31.09600000     -73.85860000
S      -47.83630000     -35.95750000     -71.31970000
C      -45.33780000     -31.34840000     -72.44930000
H      -45.04700000     -32.41120000     -72.64280000
H      -44.52610000     -30.71920000     -72.53730000
C      -46.22540000     -35.05250000     -70.91070000
H      -46.20010000     -34.36150000     -71.68740000
H      -45.38130000     -35.75790000     -70.91170000
C      -46.39810000     -34.39820000     -69.51270000
H      -47.23690000     -33.71650000     -69.47340000
H      -46.71230000     -35.14970000     -68.71880000
C      -45.97090000     -31.21850000     -71.04390000
H      -46.72060000     -31.96020000     -70.72640000
H      -46.62750000     -30.30110000     -70.93330000
C      -44.81550000     -31.32110000     -69.96460000
C      -43.86450000     -30.29860000     -69.85590000
C      -44.54390000     -32.47660000     -69.15520000
H      -43.91720000     -29.26950000     -70.21300000
C      -43.42860000     -32.29400000     -68.35300000
C      -45.12600000     -33.86790000     -68.92410000
C      -44.39610000     -34.53680000     -67.98810000
S      -42.64220000     -30.77670000     -68.64060000
S      -43.06930000     -33.68980000     -67.25610000
H      -44.59830000     -35.56140000     -67.80470000
