40
Properties=species:S:1:pos:R:3 #=T CELL(abcABC):=T 1.889726e+02=T 90.00000=T Traj:=T positionsangstrom=T Step:=T 0=T Bead:=T pbc="F F F"
C      -45.43410000     -36.36830000     -74.04700000
C      -46.63220000     -35.65900000     -73.72690000
C      -46.76840000     -34.32220000     -74.02950000
C      -45.69630000     -33.66220000     -74.75480000
C      -44.52430000     -34.28630000     -75.10540000
C      -44.46320000     -35.61630000     -74.67940000
H      -45.20610000     -37.36960000     -73.71380000
H      -47.50120000     -33.60950000     -73.61400000
H      -43.64630000     -33.75200000     -75.53610000
H      -43.63790000     -36.17150000     -74.98590000
C      -45.85740000     -32.19750000     -75.04650000
H      -46.44540000     -32.12690000     -75.98260000
H      -44.89660000     -31.77260000     -75.33010000
C      -47.80170000     -36.37400000     -73.05910000
H      -48.85610000     -36.16240000     -73.37460000
H      -47.54360000     -37.45270000     -73.12030000
S      -46.58730000     -31.12400000     -73.75500000
S      -47.87680000     -36.05140000     -71.26180000
C      -45.23900000     -31.50840000     -72.52380000
H      -44.93860000     -32.56550000     -72.55970000
H      -44.32520000     -30.85850000     -72.65870000
C      -46.33450000     -35.16660000     -70.74200000
H      -46.03140000     -34.48050000     -71.54500000
H      -45.45190000     -35.81280000     -70.40780000
C      -46.53200000     -34.28410000     -69.50400000
H      -47.19580000     -33.36580000     -69.70570000
H      -47.06570000     -34.83650000     -68.76200000
C      -45.80970000     -31.14900000     -71.14160000
H      -46.63640000     -31.81520000     -70.99910000
H      -46.14340000     -30.13360000     -71.21690000
C      -44.75450000     -31.32430000     -70.05200000
C      -43.80280000     -30.34420000     -69.90440000
C      -44.54160000     -32.45500000     -69.23330000
H      -43.77750000     -29.38320000     -70.37020000
C      -43.46780000     -32.31320000     -68.38600000
C      -45.22890000     -33.80270000     -68.97030000
C      -44.62070000     -34.45900000     -67.95990000
S      -42.65600000     -30.79190000     -68.70680000
S      -43.08920000     -33.70980000     -67.35400000
H      -45.06480000     -35.34600000     -67.49210000
