40
Properties=species:S:1:pos:R:3 #=T CELL(abcABC):=T 1.889726e+02=T 90.00000=T Traj:=T positionsangstrom=T Step:=T 0=T Bead:=T pbc="F F F"
C      -43.31730000     -32.96310000     -69.77200000
C      -44.25570000     -31.92930000     -69.56390000
C      -45.52450000     -32.27280000     -69.01080000
C      -45.89470000     -33.61510000     -68.83930000
C      -44.93790000     -34.59470000     -69.02510000
C      -43.59530000     -34.23350000     -69.39380000
H      -42.32200000     -32.62820000     -70.09090000
H      -46.30110000     -31.49060000     -68.79630000
H      -45.19730000     -35.57870000     -68.61030000
H      -42.89560000     -35.10160000     -69.46920000
C      -47.21080000     -33.90720000     -68.26140000
H      -47.83180000     -33.01090000     -68.22180000
H      -47.02600000     -34.39340000     -67.26460000
C      -43.90590000     -30.49280000     -69.77860000
H      -44.74760000     -29.82190000     -69.59530000
H      -43.13190000     -30.21770000     -69.00000000
S      -48.30660000     -35.00560000     -69.31100000
S      -42.91820000     -30.27290000     -71.33310000
C      -48.85310000     -33.99150000     -70.68110000
H      -49.32360000     -34.69780000     -71.39630000
H      -49.58380000     -33.19560000     -70.33080000
C      -44.27410000     -29.94720000     -72.50050000
H      -43.93000000     -29.92760000     -73.53590000
H      -44.73550000     -29.06160000     -72.09430000
C      -45.33100000     -31.08300000     -72.46620000
H      -45.64880000     -31.20240000     -71.43290000
H      -46.26480000     -30.89160000     -72.97880000
C      -47.79010000     -33.30800000     -71.47360000
H      -47.35350000     -32.61300000     -70.75670000
H      -48.26030000     -32.61920000     -72.17840000
C      -46.73900000     -34.15410000     -72.13130000
C      -47.04160000     -35.50380000     -72.31450000
C      -45.44170000     -33.77700000     -72.68850000
H      -47.90830000     -36.04240000     -71.92260000
C      -44.80630000     -34.87600000     -73.26090000
C      -44.81250000     -32.46650000     -72.91120000
C      -43.64040000     -32.61110000     -73.62460000
S      -45.71460000     -36.38810000     -73.06660000
S      -43.29120000     -34.30550000     -73.98470000
H      -42.85440000     -31.86780000     -73.92110000
