40
Properties=species:S:1:pos:R:3 #=T CELL(abcABC):=T 1.889726e+02=T 90.00000=T Traj:=T positionsangstrom=T Step:=T 0=T Bead:=T pbc="F F F"
C      -43.18200000     -32.92460000     -69.61510000
C      -44.10420000     -31.92120000     -69.45470000
C      -45.44970000     -32.22170000     -69.11850000
C      -45.73380000     -33.56150000     -68.88530000
C      -44.82540000     -34.63720000     -69.25100000
C      -43.56250000     -34.26110000     -69.70650000
H      -42.18790000     -32.59060000     -69.83980000
H      -46.16600000     -31.41930000     -68.94380000
H      -45.19470000     -35.63160000     -69.32590000
H      -42.94590000     -35.03020000     -70.09570000
C      -47.15440000     -33.83970000     -68.25620000
H      -47.71760000     -32.90050000     -68.01780000
H      -47.07450000     -34.27570000     -67.26600000
C      -43.60590000     -30.53560000     -69.68990000
H      -44.51360000     -29.83900000     -69.59810000
H      -42.81990000     -30.18790000     -69.05610000
S      -48.30870000     -34.95000000     -69.19870000
S      -43.03590000     -30.24430000     -71.46500000
C      -48.88650000     -33.88470000     -70.54350000
H      -49.60470000     -34.51800000     -71.12670000
H      -49.47800000     -33.08790000     -70.12980000
C      -44.57810000     -29.95990000     -72.53070000
H      -44.26090000     -29.60670000     -73.47650000
H      -45.14180000     -29.09750000     -72.21290000
C      -45.44440000     -31.19910000     -72.58320000
H      -45.93830000     -31.34380000     -71.62870000
H      -46.24410000     -30.89400000     -73.31170000
C      -47.81080000     -33.28720000     -71.42630000
H      -47.16510000     -32.56570000     -70.91710000
H      -48.39070000     -32.73960000     -72.17860000
C      -46.81660000     -34.20930000     -72.08500000
C      -46.89730000     -35.59480000     -72.12220000
C      -45.59640000     -33.76690000     -72.71910000
H      -47.72370000     -36.21030000     -71.88760000
C      -44.85550000     -34.80710000     -73.17290000
C      -44.91330000     -32.50110000     -72.92830000
C      -43.71450000     -32.71420000     -73.53780000
S      -45.58060000     -36.37860000     -73.00940000
S      -43.38470000     -34.37630000     -74.00750000
H      -43.09490000     -31.95930000     -73.89840000
