40
Properties=species:S:1:pos:R:3 #=T CELL(abcABC):=T 1.889726e+02=T 90.00000=T Traj:=T positionsangstrom=T Step:=T 0=T Bead:=T pbc="F F F"
C      -43.45380000     -32.95830000     -69.62820000
C      -44.34520000     -31.95510000     -69.36770000
C      -45.60860000     -32.28000000     -68.91260000
C      -46.01230000     -33.57510000     -68.72880000
C      -45.10650000     -34.64630000     -68.91640000
C      -43.84450000     -34.28350000     -69.38050000
H      -42.45150000     -32.88960000     -70.05110000
H      -46.32190000     -31.51950000     -68.76860000
H      -45.45440000     -35.66420000     -68.82850000
H      -43.09640000     -35.00970000     -69.50860000
C      -47.46320000     -33.75890000     -68.28070000
H      -47.98560000     -32.74990000     -68.31700000
H      -47.56940000     -34.14550000     -67.26100000
C      -43.91560000     -30.50070000     -69.57460000
H      -44.76440000     -29.85930000     -69.69600000
H      -43.19580000     -30.23160000     -68.78120000
S      -48.22460000     -34.99040000     -69.42910000
S      -42.98030000     -30.31210000     -71.19200000
C      -48.81430000     -33.85760000     -70.76080000
H      -49.44470000     -34.53880000     -71.44110000
H      -49.46140000     -33.01910000     -70.44760000
C      -44.36550000     -30.04810000     -72.37900000
H      -43.88580000     -29.86840000     -73.35380000
H      -45.02010000     -29.16580000     -72.24570000
C      -45.29950000     -31.18090000     -72.54500000
H      -45.85660000     -31.35650000     -71.61830000
H      -46.04320000     -30.98540000     -73.25800000
C      -47.67980000     -33.21630000     -71.55240000
H      -47.13530000     -32.61340000     -70.83460000
H      -48.15660000     -32.46490000     -72.23100000
C      -46.71570000     -34.13850000     -72.29550000
C      -46.97650000     -35.46210000     -72.56440000
C      -45.44590000     -33.72800000     -72.77840000
H      -47.87740000     -36.02350000     -72.25000000
C      -44.71570000     -34.81330000     -73.23490000
C      -44.65410000     -32.52440000     -72.89720000
C      -43.48660000     -32.69600000     -73.54200000
S      -45.64870000     -36.26720000     -73.29350000
S      -43.14400000     -34.44980000     -73.88330000
H      -42.67910000     -31.98380000     -73.71400000
