40
Properties=species:S:1:pos:R:3 #=T CELL(abcABC):=T 1.889726e+02=T 90.00000=T Traj:=T positionsangstrom=T Step:=T 0=T Bead:=T pbc="F F F"
C      -43.52600000     -33.17370000     -69.81600000
C      -44.25820000     -32.14980000     -69.32780000
C      -45.56480000     -32.33920000     -68.88540000
C      -46.00690000     -33.64730000     -68.71610000
C      -45.21330000     -34.72320000     -69.16850000
C      -43.95960000     -34.50700000     -69.70570000
H      -42.48110000     -33.04730000     -70.28660000
H      -46.21030000     -31.52620000     -68.61100000
H      -45.71990000     -35.69580000     -69.07010000
H      -43.31950000     -35.26690000     -70.05520000
C      -47.50490000     -33.90890000     -68.52850000
H      -48.08620000     -33.00350000     -68.26640000
H      -47.52060000     -34.56280000     -67.54100000
C      -43.52630000     -30.86030000     -69.31980000
H      -44.15190000     -30.10360000     -68.74280000
H      -42.64960000     -31.02790000     -68.74270000
S      -48.52410000     -34.90040000     -69.77140000
S      -43.02030000     -30.24590000     -71.00910000
C      -49.01490000     -33.85370000     -71.20010000
H      -49.72390000     -34.48650000     -71.77660000
H      -49.71670000     -33.03540000     -70.87740000
C      -44.46390000     -29.90300000     -72.10340000
H      -44.06270000     -29.42810000     -72.96190000
H      -45.02000000     -29.11650000     -71.61580000
C      -45.30670000     -31.09830000     -72.45890000
H      -46.04320000     -31.24570000     -71.72070000
H      -45.88020000     -30.76950000     -73.35590000
C      -47.92270000     -33.23370000     -72.06720000
H      -47.49680000     -32.38590000     -71.55070000
H      -48.29800000     -32.79520000     -72.98180000
C      -46.74140000     -34.13210000     -72.38830000
C      -46.89720000     -35.49340000     -72.61550000
C      -45.44740000     -33.70010000     -72.83860000
H      -47.78260000     -36.11070000     -72.45770000
C      -44.58760000     -34.75120000     -73.07770000
C      -44.75250000     -32.44680000     -72.92190000
C      -43.45390000     -32.58990000     -73.24660000
S      -45.38480000     -36.26270000     -73.01120000
S      -42.96060000     -34.23760000     -73.56740000
H      -42.74640000     -31.75610000     -73.47290000
