40
Properties=species:S:1:pos:R:3 #=T CELL(abcABC):=T 1.889726e+02=T 90.00000=T Traj:=T positionsangstrom=T Step:=T 0=T Bead:=T pbc="F F F"
C      -43.42000000     -32.92860000     -69.43190000
C      -44.31600000     -31.82590000     -69.15810000
C      -45.63720000     -32.17860000     -68.90890000
C      -46.08360000     -33.51670000     -68.67590000
C      -45.18530000     -34.51980000     -68.93100000
C      -43.80960000     -34.25370000     -69.31230000
H      -42.33170000     -32.73740000     -69.69770000
H      -46.33120000     -31.41680000     -68.75220000
H      -45.42850000     -35.56680000     -68.80460000
H      -43.21720000     -35.05870000     -69.66360000
C      -47.50050000     -33.91160000     -68.30340000
H      -48.05300000     -33.03020000     -68.30490000
H      -47.55660000     -34.47300000     -67.32120000
C      -43.75930000     -30.44560000     -69.52890000
H      -44.55800000     -29.65290000     -69.42720000
H      -42.99270000     -30.17330000     -68.75770000
S      -48.36870000     -35.04590000     -69.52580000
S      -42.89630000     -30.18330000     -71.19280000
C      -48.78140000     -33.91560000     -70.90980000
H      -49.44830000     -34.49300000     -71.54500000
H      -49.30210000     -33.14520000     -70.37930000
C      -44.39410000     -30.06000000     -72.35600000
H      -43.88280000     -29.82990000     -73.31480000
H      -44.99090000     -29.27070000     -71.97850000
C      -45.31030000     -31.26060000     -72.56120000
H      -45.96750000     -31.35430000     -71.66770000
H      -46.01170000     -30.85150000     -73.32350000
C      -47.63080000     -33.26790000     -71.67000000
H      -47.05100000     -32.68830000     -70.95300000
H      -48.02260000     -32.46800000     -72.30600000
C      -46.70110000     -34.18800000     -72.33490000
C      -47.01740000     -35.53160000     -72.42980000
C      -45.39460000     -33.83880000     -72.83550000
H      -47.95880000     -36.03080000     -72.17150000
C      -44.67810000     -34.89620000     -73.31840000
C      -44.69090000     -32.58000000     -72.88270000
C      -43.44900000     -32.71110000     -73.39250000
S      -45.64330000     -36.34500000     -73.34090000
S      -43.16320000     -34.36320000     -73.91280000
H      -42.65970000     -31.99080000     -73.42800000
