40
Properties=species:S:1:pos:R:3 #=T CELL(abcABC):=T 1.889726e+02=T 90.00000=T Traj:=T positionsangstrom=T Step:=T 0=T Bead:=T pbc="F F F"
C      -44.17730000     -36.31380000     -73.37860000
C      -45.53290000     -36.49640000     -73.01100000
C      -46.50270000     -35.68880000     -73.53850000
C      -46.15430000     -34.64700000     -74.47150000
C      -44.81200000     -34.59480000     -74.85920000
C      -43.83090000     -35.39810000     -74.32260000
H      -43.41520000     -36.99310000     -73.05690000
H      -47.54210000     -35.72820000     -73.16220000
H      -44.61360000     -33.79300000     -75.51260000
H      -42.78600000     -35.26740000     -74.64590000
C      -47.13340000     -33.58300000     -74.98400000
H      -47.98940000     -34.10740000     -75.46380000
H      -46.60950000     -32.87390000     -75.67440000
C      -45.82850000     -37.39140000     -71.86970000
H      -46.32020000     -38.35390000     -72.07310000
H      -44.87830000     -37.66390000     -71.50300000
S      -47.95770000     -32.44030000     -73.75990000
S      -46.71740000     -36.54010000     -70.48130000
C      -46.66820000     -31.57010000     -72.91810000
H      -46.05940000     -30.99750000     -73.63760000
H      -47.19500000     -30.82740000     -72.38560000
C      -45.35600000     -35.45660000     -69.76750000
H      -44.54950000     -35.17520000     -70.55040000
H      -44.81280000     -36.13210000     -69.10060000
C      -45.93280000     -34.21920000     -69.01150000
H      -46.79180000     -33.77720000     -69.58150000
H      -46.24450000     -34.53870000     -68.00220000
C      -45.79260000     -32.44330000     -71.93710000
H      -45.24880000     -33.12690000     -72.65370000
H      -46.31170000     -33.19050000     -71.21710000
C      -44.95860000     -31.59800000     -71.03200000
C      -44.51530000     -30.32030000     -71.32200000
C      -44.52380000     -32.05900000     -69.71980000
H      -44.53690000     -29.71340000     -72.22520000
C      -43.70020000     -31.09060000     -69.09300000
C      -44.87240000     -33.10600000     -68.73340000
C      -44.30980000     -32.91820000     -67.52130000
S      -43.46330000     -29.57020000     -70.04510000
S      -43.28930000     -31.49890000     -67.44000000
H      -44.33480000     -33.60740000     -66.68460000
