40
Properties=species:S:1:pos:R:3 #=T CELL(abcABC):=T 1.889726e+02=T 90.00000=T Traj:=T positionsangstrom=T Step:=T 0=T Bead:=T pbc="F F F"
C      -42.73590000     -32.89190000     -70.13250000
C      -43.56570000     -31.77690000     -69.88090000
C      -44.79390000     -31.96110000     -69.21990000
C      -45.13630000     -33.28610000     -68.82820000
C      -44.29200000     -34.33920000     -69.15360000
C      -43.05510000     -34.16890000     -69.76350000
H      -41.81520000     -32.67840000     -70.64890000
H      -45.36900000     -31.18200000     -68.77140000
H      -44.66560000     -35.40030000     -69.03300000
H      -42.44670000     -35.06700000     -70.05120000
C      -46.38450000     -33.39900000     -67.93610000
H      -46.92830000     -32.44010000     -67.71860000
H      -46.07080000     -33.79500000     -66.93660000
C      -43.10500000     -30.39430000     -70.27620000
H      -43.80450000     -29.54860000     -70.02040000
H      -42.13830000     -30.20920000     -69.79760000
S      -47.57330000     -34.74460000     -68.47250000
S      -42.84230000     -30.48130000     -72.14680000
C      -48.68080000     -33.93610000     -69.77850000
H      -49.31160000     -34.85610000     -70.07010000
H      -49.22750000     -33.16170000     -69.25350000
C      -44.55060000     -30.16050000     -72.67570000
H      -44.68080000     -29.89310000     -73.71640000
H      -44.84200000     -29.29200000     -72.09290000
C      -45.65400000     -31.25220000     -72.41180000
H      -46.00730000     -31.27770000     -71.42820000
H      -46.57110000     -30.79170000     -72.89150000
C      -47.95820000     -33.32270000     -70.96730000
H      -47.48980000     -32.39290000     -70.77250000
H      -48.79030000     -33.09130000     -71.70560000
C      -46.92920000     -34.22860000     -71.59880000
C      -47.21670000     -35.58130000     -71.58890000
C      -45.96950000     -33.83480000     -72.62140000
H      -47.92000000     -36.07610000     -71.01320000
C      -45.56670000     -35.02110000     -73.30220000
C      -45.32330000     -32.60630000     -73.03300000
C      -44.47220000     -32.81980000     -74.10430000
S      -46.30860000     -36.50320000     -72.76380000
S      -44.35610000     -34.55380000     -74.50010000
H      -43.82900000     -32.20470000     -74.75930000
