40
Properties=species:S:1:pos:R:3 #=T CELL(abcABC):=T 1.889726e+02=T 90.00000=T Traj:=T positionsangstrom=T Step:=T 0=T Bead:=T pbc="F F F"
C      -43.04060000     -33.11280000     -70.61570000
C      -43.47980000     -31.86900000     -70.11030000
C      -44.42040000     -31.88830000     -69.06310000
C      -44.77740000     -33.08530000     -68.42480000
C      -44.23130000     -34.30220000     -68.84130000
C      -43.35040000     -34.32440000     -69.96160000
H      -42.31350000     -33.16650000     -71.40450000
H      -44.69810000     -30.93290000     -68.63430000
H      -44.41680000     -35.28870000     -68.37440000
H      -43.02100000     -35.26910000     -70.29120000
C      -46.10170000     -33.04230000     -67.65500000
H      -46.56800000     -32.12450000     -67.93290000
H      -45.97420000     -33.04760000     -66.60390000
C      -43.07610000     -30.49820000     -70.72700000
H      -43.70360000     -29.70760000     -70.30980000
H      -42.07220000     -30.24600000     -70.37820000
S      -47.29420000     -34.37340000     -67.99960000
S      -42.96570000     -30.42330000     -72.54920000
C      -48.35750000     -33.57820000     -69.38450000
H      -49.16830000     -34.31920000     -69.75740000
H      -48.85920000     -32.65470000     -69.03510000
C      -44.72190000     -30.22180000     -73.08200000
H      -44.60010000     -30.06620000     -74.18820000
H      -45.10770000     -29.26670000     -72.60040000
C      -45.67020000     -31.39160000     -72.71050000
H      -45.73970000     -31.41240000     -71.62220000
H      -46.70220000     -31.11400000     -73.00520000
C      -47.59070000     -33.10710000     -70.68440000
H      -46.84420000     -32.47630000     -70.35480000
H      -48.37800000     -32.50710000     -71.20210000
C      -47.10080000     -34.20140000     -71.61640000
C      -47.38180000     -35.57410000     -71.51450000
C      -46.11650000     -33.97620000     -72.66890000
H      -48.10920000     -36.04500000     -70.83650000
C      -45.67890000     -35.14610000     -73.28320000
C      -45.34860000     -32.80790000     -73.15120000
C      -44.40290000     -33.21420000     -74.05930000
S      -46.59020000     -36.52170000     -72.69900000
S      -44.49430000     -34.86760000     -74.52340000
H      -43.69080000     -32.50840000     -74.36600000
