40
Properties=species:S:1:pos:R:3 #=T CELL(abcABC):=T 1.889726e+02=T 90.00000=T Traj:=T positionsangstrom=T Step:=T 0=T Bead:=T pbc="F F F"
C      -43.11690000     -33.15640000     -70.24860000
C      -43.85860000     -31.99250000     -69.85200000
C      -45.03040000     -32.17060000     -69.09680000
C      -45.57980000     -33.45960000     -69.01770000
C      -44.93790000     -34.62850000     -69.42480000
C      -43.62320000     -34.44220000     -70.00050000
H      -42.13190000     -33.06140000     -70.74340000
H      -45.59420000     -31.33610000     -68.70900000
H      -45.40980000     -35.59490000     -69.16170000
H      -43.06620000     -35.34010000     -70.39720000
C      -46.82840000     -33.62370000     -68.16980000
H      -47.45100000     -32.64280000     -68.00560000
H      -46.58970000     -33.94040000     -67.14140000
C      -43.29080000     -30.64530000     -70.11820000
H      -43.95840000     -29.92540000     -69.63740000
H      -42.28290000     -30.51290000     -69.60910000
S      -48.01530000     -34.85250000     -68.75710000
S      -43.13760000     -30.09320000     -71.86270000
C      -48.84810000     -34.03380000     -70.17640000
H      -49.49830000     -34.80740000     -70.63880000
H      -49.54750000     -33.22890000     -69.90270000
C      -44.78610000     -29.89680000     -72.62900000
H      -44.58790000     -29.70990000     -73.71450000
H      -45.36120000     -29.00300000     -72.36540000
C      -45.62900000     -31.11230000     -72.44610000
H      -45.82440000     -31.27520000     -71.36940000
H      -46.57170000     -30.81870000     -72.85190000
C      -47.79080000     -33.40380000     -71.06940000
H      -47.24880000     -32.67670000     -70.51660000
H      -48.33110000     -32.87830000     -71.86460000
C      -46.80670000     -34.35460000     -71.77800000
C      -46.96550000     -35.72500000     -71.91210000
C      -45.69340000     -33.79180000     -72.58870000
H      -47.69760000     -36.31100000     -71.29890000
C      -44.98150000     -34.85090000     -73.18180000
C      -45.15530000     -32.46390000     -72.92000000
C      -44.05020000     -32.59050000     -73.71340000
S      -45.64600000     -36.46770000     -72.86400000
S      -43.60510000     -34.31250000     -73.95790000
H      -43.40400000     -31.79420000     -74.04060000
