40
Properties=species:S:1:pos:R:3 #=T CELL(abcABC):=T 1.889726e+02=T 90.00000=T Traj:=T positionsangstrom=T Step:=T 0=T Bead:=T pbc="F F F"
C      -42.78400000     -32.98590000     -69.98910000
C      -43.53900000     -31.85840000     -69.75330000
C      -44.75910000     -32.01040000     -69.03390000
C      -45.24710000     -33.32390000     -68.73150000
C      -44.52570000     -34.43400000     -69.07730000
C      -43.25120000     -34.26680000     -69.63430000
H      -41.85470000     -32.88540000     -70.54900000
H      -45.40370000     -31.18400000     -68.90310000
H      -44.80070000     -35.43950000     -68.68240000
H      -42.76220000     -35.17980000     -69.90320000
C      -46.54550000     -33.48510000     -68.00710000
H      -47.12910000     -32.58060000     -68.13170000
H      -46.46200000     -33.63590000     -66.96180000
C      -43.11840000     -30.51420000     -70.21560000
H      -43.70170000     -29.71430000     -69.91550000
H      -42.07320000     -30.35530000     -69.79330000
S      -47.59730000     -34.90430000     -68.67470000
S      -42.95810000     -30.38120000     -72.06110000
C      -48.67820000     -33.85110000     -69.81090000
H      -49.48720000     -34.45170000     -70.21440000
H      -49.25520000     -33.09670000     -69.29840000
C      -44.68930000     -30.11120000     -72.82090000
H      -44.45760000     -30.07300000     -73.88970000
H      -45.03080000     -29.08460000     -72.56150000
C      -45.71370000     -31.22550000     -72.44490000
H      -45.78640000     -31.42460000     -71.32590000
H      -46.70800000     -31.01890000     -72.84070000
C      -47.82460000     -33.30210000     -70.98120000
H      -47.09430000     -32.63460000     -70.51450000
H      -48.44440000     -32.62550000     -71.66500000
C      -47.09680000     -34.19200000     -71.85650000
C      -47.27260000     -35.55830000     -71.82490000
C      -45.98300000     -33.77360000     -72.67470000
H      -47.96740000     -36.09100000     -71.28940000
C      -45.38530000     -34.91580000     -73.24210000
C      -45.36490000     -32.56740000     -73.11620000
C      -44.34960000     -32.73990000     -74.03250000
S      -46.02570000     -36.45930000     -72.73920000
S      -44.21790000     -34.48390000     -74.41350000
H      -43.63600000     -32.00790000     -74.38260000
