40
Properties=species:S:1:pos:R:3 #=T CELL(abcABC):=T 1.889726e+02=T 90.00000=T Traj:=T positionsangstrom=T Step:=T 0=T Bead:=T pbc="F F F"
C      -43.27440000     -33.07900000     -70.43590000
C      -43.97020000     -32.01880000     -69.86910000
C      -45.18500000     -32.09210000     -69.19050000
C      -45.68390000     -33.37780000     -69.00140000
C      -44.93610000     -34.51880000     -69.35940000
C      -43.76400000     -34.39930000     -70.12970000
H      -42.28610000     -32.84630000     -70.79230000
H      -45.59010000     -31.20830000     -68.71890000
H      -45.42700000     -35.49530000     -69.12630000
H      -43.22120000     -35.31340000     -70.45920000
C      -46.90030000     -33.66400000     -68.12490000
H      -47.30780000     -32.71150000     -67.95200000
H      -46.54880000     -34.03990000     -67.14830000
C      -43.35320000     -30.63560000     -69.93340000
H      -43.88050000     -29.88380000     -69.40020000
H      -42.36950000     -30.77130000     -69.37130000
S      -48.09820000     -34.95970000     -68.85420000
S      -43.02580000     -30.05920000     -71.67000000
C      -48.89300000     -34.00150000     -70.35040000
H      -49.55390000     -34.77010000     -70.74500000
H      -49.49930000     -33.22790000     -69.82340000
C      -44.75550000     -29.97870000     -72.36260000
H      -44.56400000     -29.61080000     -73.37980000
H      -45.26100000     -29.21640000     -71.76750000
C      -45.57410000     -31.23770000     -72.44670000
H      -46.01490000     -31.36610000     -71.40920000
H      -46.49600000     -30.98470000     -73.02370000
C      -48.01280000     -33.38740000     -71.41250000
H      -47.67130000     -32.37020000     -71.07970000
H      -48.66330000     -33.07540000     -72.29920000
C      -46.85950000     -34.23270000     -71.92680000
C      -46.91470000     -35.65560000     -71.92840000
C      -45.71170000     -33.75780000     -72.66280000
H      -47.49080000     -36.24590000     -71.21260000
C      -44.97890000     -34.83130000     -73.23310000
C      -45.01350000     -32.51510000     -72.95940000
C      -43.80090000     -32.68170000     -73.61150000
S      -45.55600000     -36.46880000     -72.66360000
S      -43.48510000     -34.33640000     -74.04460000
H      -43.05480000     -31.90110000     -73.82900000
