40
Properties=species:S:1:pos:R:3 #=T CELL(abcABC):=T 1.889726e+02=T 90.00000=T Traj:=T positionsangstrom=T Step:=T 0=T Bead:=T pbc="F F F"
C      -45.93970000     -37.01330000     -73.18160000
C      -45.70480000     -35.91880000     -72.30080000
C      -46.65740000     -34.88840000     -72.27000000
C      -47.82870000     -34.89890000     -73.11080000
C      -47.94500000     -35.95970000     -74.04850000
C      -47.03380000     -37.02430000     -74.03560000
H      -45.23470000     -37.77420000     -73.30840000
H      -46.47150000     -33.98010000     -71.72750000
H      -48.76070000     -35.92130000     -74.77520000
H      -47.10740000     -37.85850000     -74.78600000
C      -48.75640000     -33.77520000     -73.12780000
H      -49.44830000     -33.68160000     -72.24460000
H      -49.49680000     -33.93120000     -73.92670000
C      -44.40460000     -35.75550000     -71.44310000
H      -44.51800000     -35.10340000     -70.57760000
H      -44.18510000     -36.78220000     -71.10360000
S      -47.84910000     -32.26000000     -73.56310000
S      -43.00990000     -35.25220000     -72.49110000
C      -47.68430000     -31.53130000     -71.86310000
H      -48.43580000     -30.71180000     -71.79470000
H      -47.91220000     -32.35700000     -71.15450000
C      -43.46990000     -33.53020000     -73.01800000
H      -44.57300000     -33.39900000     -73.00920000
H      -43.20930000     -33.39140000     -74.05940000
C      -42.88310000     -32.43160000     -72.16390000
H      -41.77300000     -32.47170000     -72.11340000
H      -43.09550000     -31.46630000     -72.61260000
C      -46.20950000     -31.09110000     -71.74450000
H      -46.17750000     -29.97900000     -72.01880000
H      -45.49460000     -31.56770000     -72.43640000
C      -45.66260000     -31.34130000     -70.37280000
C      -46.32240000     -30.97420000     -69.23390000
C      -44.40290000     -31.96030000     -69.95100000
H      -47.24990000     -30.49710000     -68.95630000
C      -44.19030000     -31.99680000     -68.57440000
C      -43.27060000     -32.53630000     -70.68130000
C      -42.28760000     -32.96150000     -69.80220000
S      -45.49240000     -31.35030000     -67.68100000
S      -42.67610000     -32.78610000     -68.09150000
H      -41.34600000     -33.51720000     -70.09280000
