40
Properties=species:S:1:pos:R:3 #=T CELL(abcABC):=T 1.889726e+02=T 90.00000=T Traj:=T positionsangstrom=T Step:=T 0=T Bead:=T pbc="F F F"
C      -47.34990000     -31.18590000     -74.40620000
C      -46.16030000     -31.60940000     -73.92100000
C      -45.97150000     -31.80680000     -72.57860000
C      -46.98250000     -31.62680000     -71.60220000
C      -48.17740000     -31.18360000     -72.13410000
C      -48.40660000     -30.96250000     -73.49360000
H      -47.48290000     -31.03440000     -75.43850000
H      -44.90350000     -32.05190000     -72.31480000
H      -49.05620000     -31.04180000     -71.54770000
H      -49.35890000     -30.66890000     -73.77530000
C      -46.84710000     -31.89980000     -70.12290000
H      -46.83880000     -31.05460000     -69.42490000
H      -45.82320000     -32.29370000     -69.96970000
C      -45.03830000     -31.99590000     -74.99990000
H      -45.50770000     -32.72010000     -75.65870000
H      -44.75180000     -31.22070000     -75.67350000
S      -48.08350000     -33.06820000     -69.40280000
S      -43.51750000     -32.67090000     -74.30450000
C      -47.91260000     -34.44760000     -70.71400000
H      -48.82570000     -34.83530000     -71.00890000
H      -47.56810000     -33.96330000     -71.65570000
C      -44.00960000     -34.45620000     -74.20990000
H      -43.03050000     -34.97420000     -74.22950000
H      -44.70970000     -34.50680000     -75.06410000
C      -44.68200000     -34.77740000     -72.92240000
H      -45.62530000     -34.23860000     -72.94220000
H      -44.92190000     -35.86760000     -72.97280000
C      -46.86980000     -35.60910000     -70.40120000
H      -46.57650000     -36.12310000     -71.36830000
H      -47.18870000     -36.44690000     -69.78000000
C      -45.62030000     -35.07120000     -69.67030000
C      -45.63640000     -34.98620000     -68.32750000
C      -44.39750000     -34.65990000     -70.27900000
H      -46.43920000     -35.31150000     -67.62430000
C      -43.41810000     -34.36350000     -69.24580000
C      -43.90200000     -34.50290000     -71.60760000
C      -42.54410000     -34.21280000     -71.59880000
S      -44.10090000     -34.41180000     -67.62550000
S      -41.90950000     -33.90070000     -69.93570000
H      -41.93390000     -33.83990000     -72.37550000
