40
Properties=species:S:1:pos:R:3 #=T CELL(abcABC):=T 1.889726e+02=T 90.00000=T Traj:=T positionsangstrom=T Step:=T 0=T Bead:=T pbc="F F F"
C      -42.66860000     -33.14820000     -70.86490000
C      -43.23180000     -31.93130000     -70.49530000
C      -44.19100000     -31.91760000     -69.43830000
C      -44.69350000     -33.10090000     -68.78580000
C      -44.07880000     -34.36870000     -69.25510000
C      -43.03840000     -34.33760000     -70.19290000
H      -41.97250000     -33.28350000     -71.70960000
H      -44.67160000     -30.97300000     -69.15890000
H      -44.28360000     -35.31500000     -68.69420000
H      -42.51060000     -35.23440000     -70.42590000
C      -45.92830000     -32.93190000     -67.87290000
H      -46.36560000     -31.88780000     -67.96220000
H      -45.58220000     -32.97530000     -66.85250000
C      -42.82340000     -30.68010000     -71.19300000
H      -43.22410000     -29.77430000     -70.80110000
H      -41.73360000     -30.56330000     -71.19640000
S      -47.15690000     -34.30670000     -67.87040000
S      -43.19690000     -30.72350000     -73.08990000
C      -48.41640000     -33.66700000     -69.10160000
H      -49.18180000     -34.43970000     -69.31590000
H      -48.79580000     -32.76670000     -68.58380000
C      -44.95790000     -30.27010000     -73.35300000
H      -45.26670000     -30.30650000     -74.38500000
H      -45.09990000     -29.27440000     -72.90800000
C      -45.96930000     -31.27410000     -72.65230000
H      -45.83210000     -31.16870000     -71.57660000
H      -46.96750000     -30.83080000     -72.92660000
C      -47.72000000     -33.05090000     -70.25820000
H      -46.88500000     -32.48000000     -69.81430000
H      -48.34350000     -32.31400000     -70.72270000
C      -47.08640000     -34.09080000     -71.24200000
C      -47.24290000     -35.46520000     -71.04450000
C      -46.31420000     -33.89810000     -72.43690000
H      -47.81050000     -36.10070000     -70.35370000
C      -45.82150000     -35.06430000     -72.99730000
C      -45.82540000     -32.73010000     -73.17540000
C      -44.98600000     -33.07230000     -74.19690000
S      -46.31380000     -36.51600000     -72.15310000
S      -44.64840000     -34.77110000     -74.23700000
H      -44.59700000     -32.35930000     -74.94680000
