40
Properties=species:S:1:pos:R:3 #=T CELL(abcABC):=T 1.889726e+02=T 90.00000=T Traj:=T positionsangstrom=T Step:=T 0=T Bead:=T pbc="F F F"
C      -42.90740000     -32.94960000     -71.27400000
C      -43.39530000     -31.74600000     -70.76260000
C      -44.27320000     -31.80510000     -69.65320000
C      -44.59100000     -32.98400000     -68.93210000
C      -43.97700000     -34.14010000     -69.39560000
C      -43.20580000     -34.11600000     -70.60880000
H      -42.41050000     -32.95600000     -72.21510000
H      -44.67300000     -30.88250000     -69.22820000
H      -44.09810000     -35.12320000     -68.94140000
H      -42.94190000     -35.12360000     -70.92160000
C      -45.51650000     -33.05720000     -67.73940000
H      -45.93800000     -32.08910000     -67.46970000
H      -44.96450000     -33.37230000     -66.85150000
C      -43.09770000     -30.40830000     -71.39080000
H      -43.78600000     -29.63730000     -70.97450000
H      -42.14900000     -30.05340000     -71.14430000
S      -46.95570000     -34.22960000     -67.82790000
S      -43.30580000     -30.41920000     -73.20970000
C      -48.12360000     -33.40820000     -68.99020000
H      -48.98970000     -34.06390000     -69.02580000
H      -48.45910000     -32.43150000     -68.50600000
C      -45.14040000     -30.41550000     -73.50460000
H      -45.34460000     -30.74570000     -74.50230000
H      -45.52550000     -29.40830000     -73.46540000
C      -45.98310000     -31.40240000     -72.62960000
H      -45.65060000     -31.25520000     -71.57760000
H      -47.06020000     -31.11820000     -72.69730000
C      -47.68420000     -33.10800000     -70.40020000
H      -46.88480000     -32.38270000     -70.47690000
H      -48.42460000     -32.76160000     -71.06720000
C      -47.08120000     -34.27150000     -71.10610000
C      -47.09120000     -35.62220000     -70.66070000
C      -46.28920000     -34.01860000     -72.24110000
H      -47.60240000     -35.95060000     -69.74530000
C      -45.72970000     -35.22080000     -72.72170000
C      -45.85720000     -32.89430000     -73.01520000
C      -45.00530000     -33.26060000     -74.06790000
S      -46.30920000     -36.71640000     -71.92340000
S      -44.75940000     -35.02070000     -74.15310000
H      -44.30460000     -32.54120000     -74.63850000
