40
Properties=species:S:1:pos:R:3 #=T CELL(abcABC):=T 1.889726e+02=T 90.00000=T Traj:=T positionsangstrom=T Step:=T 0=T Bead:=T pbc="F F F"
C      -43.28150000     -32.47330000     -72.08960000
C      -43.96660000     -31.37370000     -71.55580000
C      -44.14610000     -31.29650000     -70.15930000
C      -43.89320000     -32.44850000     -69.36140000
C      -43.26080000     -33.56140000     -69.95220000
C      -42.83330000     -33.48920000     -71.27350000
H      -42.97040000     -32.46640000     -73.11440000
H      -44.60580000     -30.43130000     -69.65640000
H      -42.89690000     -34.39220000     -69.30300000
H      -42.33950000     -34.38880000     -71.69840000
C      -44.18970000     -32.43350000     -67.88110000
H      -44.79270000     -31.48140000     -67.71540000
H      -43.24660000     -32.32060000     -67.33960000
C      -44.28050000     -30.16200000     -72.41560000
H      -44.74990000     -29.27050000     -71.98690000
H      -43.32970000     -29.87330000     -72.87370000
S      -45.09920000     -33.99540000     -67.38260000
S      -45.31720000     -30.49380000     -73.86600000
C      -46.77570000     -33.62300000     -68.05950000
H      -47.28520000     -34.53300000     -67.76720000
H      -47.30520000     -32.84850000     -67.47970000
C      -47.11290000     -30.80560000     -73.35470000
H      -47.66440000     -30.96000000     -74.26650000
H      -47.51620000     -29.91960000     -72.92200000
C      -47.22620000     -31.99990000     -72.41940000
H      -46.89690000     -31.62180000     -71.46560000
H      -48.37510000     -32.17550000     -72.23920000
C      -46.86350000     -33.36590000     -69.56500000
H      -46.54960000     -32.29290000     -69.59220000
H      -47.88140000     -33.28530000     -69.86940000
C      -46.24770000     -34.47940000     -70.42310000
C      -45.63420000     -35.61450000     -70.02210000
C      -46.27770000     -34.40390000     -71.87540000
H      -45.46270000     -35.97690000     -69.06300000
C      -45.71770000     -35.53430000     -72.48720000
C      -46.61700000     -33.33360000     -72.82120000
C      -46.48910000     -33.84710000     -74.10130000
S      -45.23290000     -36.72370000     -71.33090000
S      -45.68380000     -35.40310000     -74.26710000
H      -46.86190000     -33.29300000     -74.98230000
