40
Properties=species:S:1:pos:R:3 #=T CELL(abcABC):=T 1.889726e+02=T 90.00000=T Traj:=T positionsangstrom=T Step:=T 0=T Bead:=T pbc="F F F"
C      -43.02130000     -32.45240000     -71.40430000
C      -43.76130000     -31.37060000     -70.89970000
C      -44.23670000     -31.51420000     -69.57980000
C      -44.16860000     -32.74800000     -68.88390000
C      -43.57180000     -33.79880000     -69.50940000
C      -43.00730000     -33.71130000     -70.79220000
H      -42.55160000     -32.33590000     -72.40170000
H      -44.88900000     -30.75230000     -69.21380000
H      -43.56960000     -34.69780000     -68.96740000
H      -42.46260000     -34.46910000     -71.29220000
C      -44.95450000     -32.95220000     -67.61390000
H      -45.49670000     -31.93440000     -67.44860000
H      -44.41720000     -33.19620000     -66.75230000
C      -43.93690000     -30.15860000     -71.64430000
H      -44.93000000     -29.65850000     -71.35440000
H      -43.16700000     -29.45090000     -71.30130000
S      -46.25380000     -34.29080000     -67.70580000
S      -43.87780000     -30.29930000     -73.50390000
C      -47.69260000     -33.43340000     -68.53730000
H      -48.53000000     -34.04660000     -68.23780000
H      -47.81290000     -32.39640000     -68.01830000
C      -45.65790000     -30.73190000     -73.92540000
H      -45.53470000     -31.22610000     -74.92320000
H      -46.31940000     -29.84740000     -73.93790000
C      -46.36850000     -31.66810000     -72.98070000
H      -46.32160000     -31.34000000     -71.88000000
H      -47.47080000     -31.71130000     -73.18770000
C      -47.48400000     -33.18990000     -70.09350000
H      -46.79020000     -32.40520000     -70.26840000
H      -48.52250000     -32.78530000     -70.32100000
C      -47.07340000     -34.38350000     -70.96270000
C      -47.24480000     -35.68100000     -70.64070000
C      -46.33080000     -34.25460000     -72.18820000
H      -47.56200000     -36.23780000     -69.79510000
C      -45.90020000     -35.46500000     -72.74800000
C      -45.83620000     -33.14010000     -72.97440000
C      -44.98750000     -33.49840000     -73.94470000
S      -46.25510000     -36.75840000     -71.71320000
S      -44.78680000     -35.30470000     -74.08870000
H      -44.44430000     -32.96330000     -74.66770000
