40
Properties=species:S:1:pos:R:3 #=T CELL(abcABC):=T 1.889726e+02=T 90.00000=T Traj:=T positionsangstrom=T Step:=T 0=T Bead:=T pbc="F F F"
C      -42.86760000     -32.35590000     -71.39460000
C      -43.71260000     -31.31200000     -70.98400000
C      -44.44160000     -31.45230000     -69.81780000
C      -44.24100000     -32.62840000     -69.05810000
C      -43.44680000     -33.64200000     -69.57620000
C      -42.82660000     -33.58410000     -70.78200000
H      -42.34960000     -32.21870000     -72.31210000
H      -45.05490000     -30.61590000     -69.50490000
H      -43.48710000     -34.54820000     -68.94330000
H      -42.35760000     -34.41000000     -71.29580000
C      -44.95330000     -32.80340000     -67.66600000
H      -45.48770000     -31.90700000     -67.32780000
H      -44.22750000     -32.99790000     -66.86220000
C      -43.80090000     -30.06670000     -71.78620000
H      -44.59180000     -29.47000000     -71.44500000
H      -42.82270000     -29.56450000     -71.70130000
S      -46.09100000     -34.28120000     -67.64340000
S      -43.99950000     -30.33950000     -73.56920000
C      -47.55000000     -33.64130000     -68.54760000
H      -48.31210000     -34.40390000     -68.57610000
H      -47.91210000     -32.80420000     -67.99110000
C      -45.84550000     -30.67350000     -73.75240000
H      -45.91230000     -31.03510000     -74.75320000
H      -46.41200000     -29.72780000     -73.68070000
C      -46.46040000     -31.75510000     -72.85530000
H      -46.23780000     -31.45210000     -71.88890000
H      -47.54500000     -31.71210000     -73.02690000
C      -47.47730000     -33.17960000     -70.09450000
H      -47.00300000     -32.18500000     -70.14530000
H      -48.47860000     -33.10050000     -70.57090000
C      -46.86520000     -34.34570000     -70.83050000
C      -47.00640000     -35.67400000     -70.46240000
C      -46.18290000     -34.18370000     -72.12920000
H      -47.36790000     -36.20920000     -69.65840000
C      -45.73750000     -35.48290000     -72.51550000
C      -45.87790000     -33.13910000     -73.06870000
C      -45.25100000     -33.66790000     -74.14040000
S      -46.37430000     -36.80670000     -71.60140000
S      -44.97680000     -35.43700000     -74.12310000
H      -44.92470000     -33.10140000     -75.01200000
