40
Properties=species:S:1:pos:R:3 #=T CELL(abcABC):=T 1.889726e+02=T 90.00000=T Traj:=T positionsangstrom=T Step:=T 0=T Bead:=T pbc="F F F"
C      -43.12340000     -32.29240000     -72.03570000
C      -43.89880000     -31.30940000     -71.50730000
C      -44.27080000     -31.38230000     -70.15070000
C      -43.88240000     -32.47370000     -69.28540000
C      -43.19640000     -33.53310000     -69.84530000
C      -42.77640000     -33.39390000     -71.19900000
H      -42.92590000     -32.32700000     -73.10390000
H      -44.92400000     -30.54170000     -69.73900000
H      -42.88970000     -34.47220000     -69.28040000
H      -42.26370000     -34.26110000     -71.61940000
C      -44.43240000     -32.42910000     -67.91690000
H      -44.97660000     -31.58660000     -67.55550000
H      -43.59140000     -32.40550000     -67.25010000
C      -44.23260000     -30.07410000     -72.39120000
H      -44.97580000     -29.36430000     -71.75520000
H      -43.28940000     -29.60340000     -72.57250000
S      -45.29270000     -33.91320000     -67.29170000
S      -45.06760000     -30.60940000     -73.97040000
C      -47.06220000     -33.91170000     -68.05050000
H      -47.38080000     -34.93490000     -67.90570000
H      -47.63880000     -33.15040000     -67.51740000
C      -46.77010000     -30.85980000     -73.39540000
H      -47.41760000     -30.89050000     -74.29670000
H      -47.08110000     -29.95380000     -72.82600000
C      -47.11800000     -31.98190000     -72.42580000
H      -46.74500000     -31.77100000     -71.42360000
H      -48.18210000     -32.02660000     -72.46580000
C      -46.99470000     -33.46030000     -69.47230000
H      -46.45300000     -32.50920000     -69.56990000
H      -48.01760000     -33.25970000     -69.90160000
C      -46.41050000     -34.54020000     -70.46070000
C      -45.94640000     -35.74500000     -70.07890000
C      -46.22580000     -34.37390000     -71.87480000
H      -45.75010000     -36.08100000     -69.06070000
C      -45.66910000     -35.49130000     -72.54450000
C      -46.49640000     -33.33230000     -72.79130000
C      -46.30190000     -33.68570000     -74.10300000
S      -45.26350000     -36.70530000     -71.43000000
S      -45.70240000     -35.35880000     -74.27960000
H      -46.50690000     -33.03270000     -74.95130000
