40
Properties=species:S:1:pos:R:3 #=T CELL(abcABC):=T 1.889726e+02=T 90.00000=T Traj:=T positionsangstrom=T Step:=T 0=T Bead:=T pbc="F F F"
C      -42.72990000     -32.39860000     -71.49370000
C      -43.51600000     -31.28350000     -71.10260000
C      -44.26550000     -31.36160000     -69.90100000
C      -44.21940000     -32.50190000     -69.09870000
C      -43.38990000     -33.52550000     -69.48210000
C      -42.64010000     -33.49220000     -70.64840000
H      -42.17370000     -32.22570000     -72.38990000
H      -44.96450000     -30.57880000     -69.64290000
H      -43.25570000     -34.47470000     -68.90740000
H      -42.01470000     -34.31770000     -70.96220000
C      -45.02570000     -32.68760000     -67.85500000
H      -45.75020000     -31.92140000     -67.74280000
H      -44.33770000     -32.59220000     -66.95810000
C      -43.63730000     -30.08630000     -71.96920000
H      -44.21560000     -29.26490000     -71.41490000
H      -42.64790000     -29.63810000     -72.04310000
S      -46.05960000     -34.17240000     -67.52640000
S      -44.16240000     -30.32760000     -73.74090000
C      -47.57470000     -33.59310000     -68.50440000
H      -48.37090000     -34.32990000     -68.09160000
H      -47.84420000     -32.65000000     -67.99450000
C      -45.99870000     -30.58810000     -73.57160000
H      -46.36030000     -30.79200000     -74.60820000
H      -46.47030000     -29.62590000     -73.34290000
C      -46.44200000     -31.73350000     -72.67290000
H      -46.04980000     -31.68960000     -71.66010000
H      -47.52290000     -31.72620000     -72.43050000
C      -47.39990000     -33.33920000     -70.04390000
H      -46.87240000     -32.37100000     -70.17090000
H      -48.36700000     -33.04470000     -70.34690000
C      -46.89830000     -34.49100000     -70.81520000
C      -46.92360000     -35.77760000     -70.35070000
C      -46.27300000     -34.35320000     -72.10830000
H      -47.32490000     -36.21440000     -69.44070000
C      -45.81040000     -35.59750000     -72.56620000
C      -46.04890000     -33.21420000     -73.00420000
C      -45.46230000     -33.64410000     -74.17790000
S      -46.17640000     -36.95890000     -71.54910000
S      -45.17630000     -35.40990000     -74.20680000
H      -45.14620000     -32.89850000     -74.94760000
