40
Properties=species:S:1:pos:R:3 #=T CELL(abcABC):=T 1.889726e+02=T 90.00000=T Traj:=T positionsangstrom=T Step:=T 0=T Bead:=T pbc="F F F"
C      -43.28960000     -32.11790000     -72.59350000
C      -43.83550000     -31.07510000     -71.87620000
C      -44.02260000     -31.21720000     -70.47910000
C      -43.44340000     -32.29550000     -69.80570000
C      -42.85480000     -33.33100000     -70.51690000
C      -42.83560000     -33.27170000     -71.92410000
H      -43.05420000     -31.89630000     -73.65710000
H      -44.49490000     -30.36500000     -69.95670000
H      -42.32600000     -34.23380000     -70.00920000
H      -42.27350000     -34.05600000     -72.55690000
C      -43.65700000     -32.38910000     -68.32120000
H      -44.39900000     -31.64080000     -68.03820000
H      -42.80560000     -32.10810000     -67.73340000
C      -44.41720000     -29.91960000     -72.70310000
H      -44.84870000     -29.04270000     -72.10800000
H      -43.63010000     -29.60780000     -73.43220000
S      -44.18580000     -34.02130000     -67.69640000
S      -45.78940000     -30.51810000     -73.93650000
C      -46.06460000     -33.96550000     -67.67980000
H      -46.31160000     -34.96320000     -67.35710000
H      -46.33080000     -33.13390000     -67.01660000
C      -47.30330000     -30.84160000     -73.00250000
H      -48.15360000     -31.06320000     -73.78420000
H      -47.69800000     -29.95830000     -72.44750000
C      -47.45840000     -32.02770000     -72.00740000
H      -46.99620000     -31.52290000     -71.11360000
H      -48.45100000     -32.16030000     -71.78430000
C      -46.64530000     -33.64650000     -69.01180000
H      -46.44280000     -32.69600000     -69.35300000
H      -47.76130000     -33.52780000     -68.89500000
C      -46.46980000     -34.68720000     -70.11280000
C      -46.11420000     -35.99390000     -69.81290000
C      -46.48970000     -34.40400000     -71.56480000
H      -45.88030000     -36.39510000     -68.86760000
C      -45.93850000     -35.52980000     -72.27970000
C      -46.87500000     -33.35320000     -72.43470000
C      -46.59280000     -33.68720000     -73.77270000
S      -45.56450000     -36.95770000     -71.29070000
S      -46.04370000     -35.30480000     -73.91080000
H      -46.94450000     -33.10140000     -74.64170000
