40
Properties=species:S:1:pos:R:3 #=T CELL(abcABC):=T 1.889726e+02=T 90.00000=T Traj:=T positionsangstrom=T Step:=T 0=T Bead:=T pbc="F F F"
C      -43.32140000     -32.21920000     -72.62830000
C      -43.95980000     -31.13960000     -71.93440000
C      -44.06950000     -31.18050000     -70.56240000
C      -43.50290000     -32.32770000     -69.79860000
C      -42.89070000     -33.35540000     -70.48090000
C      -42.76460000     -33.26600000     -71.90060000
H      -43.49530000     -32.46430000     -73.67830000
H      -44.58610000     -30.37280000     -70.02710000
H      -42.67400000     -34.29240000     -69.99460000
H      -42.32230000     -34.16250000     -72.42880000
C      -43.66530000     -32.29780000     -68.29820000
H      -44.47840000     -31.64100000     -68.00270000
H      -42.63330000     -31.99060000     -67.87630000
C      -44.58590000     -30.01820000     -72.71170000
H      -44.97630000     -29.20090000     -72.08010000
H      -43.89670000     -29.43480000     -73.27670000
S      -44.06620000     -34.04260000     -67.71210000
S      -45.90800000     -30.48930000     -73.91010000
C      -45.89760000     -33.90600000     -67.67240000
H      -46.33210000     -34.79920000     -67.18800000
H      -46.13280000     -33.00180000     -67.07320000
C      -47.37270000     -30.90810000     -72.83160000
H      -48.06700000     -31.12230000     -73.57400000
H      -47.59690000     -30.00550000     -72.31890000
C      -47.10720000     -32.00930000     -71.86810000
H      -46.15060000     -31.89110000     -71.24230000
H      -47.93660000     -31.94860000     -71.16740000
C      -46.60030000     -33.63730000     -69.00970000
H      -46.33420000     -32.60320000     -69.28940000
H      -47.67210000     -33.65280000     -68.84280000
C      -46.32620000     -34.65640000     -70.14130000
C      -45.91140000     -35.90910000     -69.88490000
C      -46.45530000     -34.44430000     -71.60740000
H      -45.79080000     -36.33120000     -68.91890000
C      -46.04170000     -35.56850000     -72.32160000
C      -46.76470000     -33.32530000     -72.45110000
C      -46.62720000     -33.63410000     -73.78030000
S      -45.72280000     -36.98420000     -71.24970000
S      -46.08390000     -35.25560000     -74.00350000
H      -46.71570000     -32.93380000     -74.65220000
