40
Properties=species:S:1:pos:R:3 #=T CELL(abcABC):=T 1.889726e+02=T 90.00000=T Traj:=T positionsangstrom=T Step:=T 0=T Bead:=T pbc="F F F"
C      -43.42800000     -32.22610000     -72.37700000
C      -44.15800000     -31.25530000     -71.66750000
C      -44.17640000     -31.31820000     -70.29770000
C      -43.56810000     -32.36840000     -69.64270000
C      -42.90210000     -33.37800000     -70.35530000
C      -42.70710000     -33.24840000     -71.75590000
H      -43.46690000     -32.05410000     -73.44110000
H      -44.50150000     -30.45430000     -69.71320000
H      -42.34200000     -34.22700000     -69.79170000
H      -42.14570000     -33.99110000     -72.27220000
C      -43.80630000     -32.42440000     -68.18040000
H      -44.43960000     -31.56630000     -67.87590000
H      -42.84490000     -32.38480000     -67.64870000
C      -44.65020000     -30.00370000     -72.35320000
H      -45.22310000     -29.27570000     -71.69790000
H      -43.75090000     -29.46480000     -72.77810000
S      -44.53350000     -33.94640000     -67.55610000
S      -45.74260000     -30.38630000     -73.88120000
C      -46.35760000     -33.72360000     -67.81570000
H      -46.78070000     -34.60280000     -67.31540000
H      -46.78600000     -32.91890000     -67.27150000
C      -47.39570000     -30.95330000     -73.31500000
H      -48.03060000     -31.29330000     -74.15580000
H      -48.03690000     -30.12660000     -72.84980000
C      -47.29060000     -32.07760000     -72.29940000
H      -46.88430000     -31.65640000     -71.46480000
H      -48.25760000     -32.42120000     -71.89210000
C      -46.74360000     -33.49550000     -69.26040000
H      -46.38400000     -32.54490000     -69.70680000
H      -47.82910000     -33.50160000     -69.32920000
C      -46.26950000     -34.54560000     -70.24100000
C      -45.79010000     -35.73770000     -69.85400000
C      -46.27600000     -34.40700000     -71.71470000
H      -45.67900000     -36.08350000     -68.84590000
C      -45.77970000     -35.55540000     -72.36700000
C      -46.67510000     -33.42390000     -72.67420000
C      -46.53100000     -33.85620000     -73.99120000
S      -45.49340000     -36.83640000     -71.20630000
S      -45.70060000     -35.52650000     -74.08440000
H      -46.66340000     -33.37230000     -74.94870000
