40
Properties=species:S:1:pos:R:3 #=T CELL(abcABC):=T 1.889726e+02=T 90.00000=T Traj:=T positionsangstrom=T Step:=T 0=T Bead:=T pbc="F F F"
C      -43.59010000     -32.26270000     -72.70950000
C      -44.10260000     -31.22850000     -71.88660000
C      -44.00020000     -31.29230000     -70.49340000
C      -43.41290000     -32.41330000     -69.88620000
C      -42.88730000     -33.42390000     -70.72700000
C      -42.99630000     -33.31250000     -72.11720000
H      -43.54690000     -32.10810000     -73.78150000
H      -44.43970000     -30.46730000     -69.88340000
H      -42.45170000     -34.32700000     -70.26530000
H      -42.56040000     -34.10480000     -72.60470000
C      -43.33710000     -32.38090000     -68.39390000
H      -43.90640000     -31.52490000     -67.91340000
H      -42.31010000     -32.31440000     -67.98180000
C      -44.72240000     -30.03000000     -72.48320000
H      -45.06960000     -29.30440000     -71.70960000
H      -44.00960000     -29.46270000     -73.11090000
S      -43.90060000     -33.91350000     -67.51660000
S      -45.97490000     -30.43000000     -73.84590000
C      -45.75790000     -33.76470000     -67.66860000
H      -46.11330000     -34.66340000     -67.25530000
H      -46.08240000     -32.84290000     -67.11730000
C      -47.54230000     -30.93070000     -72.87140000
H      -48.23430000     -31.09460000     -73.74400000
H      -47.88500000     -29.94770000     -72.43670000
C      -47.21140000     -32.02760000     -71.92740000
H      -46.36360000     -31.72040000     -71.30810000
H      -48.01110000     -32.10590000     -71.16670000
C      -46.40260000     -33.56770000     -69.05180000
H      -46.07570000     -32.64270000     -69.45140000
H      -47.49470000     -33.44090000     -68.91220000
C      -46.21290000     -34.62940000     -70.15320000
C      -45.82210000     -35.86280000     -69.83560000
C      -46.45080000     -34.40600000     -71.62030000
H      -45.60270000     -36.07180000     -68.72130000
C      -46.08030000     -35.57330000     -72.27240000
C      -46.83470000     -33.29550000     -72.49050000
C      -46.81790000     -33.72080000     -73.81320000
S      -45.62520000     -36.96710000     -71.28790000
S      -46.17100000     -35.35330000     -74.01990000
H      -47.32650000     -33.31940000     -74.62570000
