40
Properties=species:S:1:pos:R:3 #=T CELL(abcABC):=T 1.889726e+02=T 90.00000=T Traj:=T positionsangstrom=T Step:=T 0=T Bead:=T pbc="F F F"
C      -43.77870000     -32.26120000     -72.69650000
C      -44.11830000     -31.22090000     -71.84250000
C      -43.91660000     -31.25920000     -70.49330000
C      -43.30120000     -32.33060000     -69.94610000
C      -42.81980000     -33.40210000     -70.75570000
C      -43.07920000     -33.35860000     -72.11180000
H      -43.93410000     -32.25860000     -73.79280000
H      -44.32500000     -30.52190000     -69.84960000
H      -42.20170000     -34.24060000     -70.32210000
H      -42.75440000     -34.20830000     -72.81080000
C      -43.25790000     -32.47790000     -68.47470000
H      -43.69670000     -31.70010000     -67.80880000
H      -42.17350000     -32.57240000     -68.10320000
C      -44.86500000     -30.01640000     -72.42130000
H      -45.54940000     -29.64320000     -71.57840000
H      -44.08190000     -29.29440000     -72.76930000
S      -43.99580000     -34.10450000     -67.73400000
S      -45.97050000     -30.42370000     -73.85410000
C      -45.83940000     -33.86740000     -67.68690000
H      -46.20140000     -34.72010000     -67.03470000
H      -46.06030000     -32.99340000     -67.03440000
C      -47.48840000     -30.93610000     -72.95900000
H      -48.18610000     -31.32760000     -73.76120000
H      -47.94360000     -30.00170000     -72.58150000
C      -47.24260000     -32.00950000     -71.88570000
H      -46.36340000     -31.72790000     -71.29400000
H      -48.16760000     -31.97010000     -71.29590000
C      -46.50420000     -33.59760000     -68.96000000
H      -46.25150000     -32.50960000     -69.30420000
H      -47.56940000     -33.63000000     -68.82480000
C      -46.06830000     -34.53190000     -70.12570000
C      -45.55310000     -35.79140000     -69.88290000
C      -46.27550000     -34.30260000     -71.54840000
H      -45.31770000     -36.28690000     -68.85220000
C      -45.93570000     -35.46060000     -72.26150000
C      -46.92820000     -33.36190000     -72.39050000
C      -47.19540000     -33.84110000     -73.64930000
S      -45.23980000     -36.74180000     -71.32830000
S      -46.44170000     -35.38810000     -73.88740000
H      -47.63800000     -33.18150000     -74.41000000
