40
Properties=species:S:1:pos:R:3 #=T CELL(abcABC):=T 1.889726e+02=T 90.00000=T Traj:=T positionsangstrom=T Step:=T 0=T Bead:=T pbc="F F F"
C      -43.71310000     -32.24200000     -72.87420000
C      -44.07850000     -31.17140000     -72.03990000
C      -43.87690000     -31.40870000     -70.65030000
C      -43.27720000     -32.50150000     -70.11790000
C      -43.04500000     -33.58900000     -70.96220000
C      -43.23240000     -33.44060000     -72.35820000
H      -43.79860000     -32.06660000     -73.93010000
H      -44.14230000     -30.54790000     -69.97550000
H      -42.75210000     -34.53720000     -70.56080000
H      -42.93770000     -34.20580000     -73.09030000
C      -42.93170000     -32.60900000     -68.65770000
H      -43.35680000     -31.79430000     -68.00780000
H      -41.90560000     -32.45430000     -68.56960000
C      -44.80770000     -29.95320000     -72.44160000
H      -45.22230000     -29.58440000     -71.45970000
H      -44.14120000     -29.09570000     -72.72580000
S      -43.44810000     -34.11490000     -67.79420000
S      -46.27620000     -30.16750000     -73.63530000
C      -45.27350000     -34.02930000     -67.71480000
H      -45.60050000     -35.00600000     -67.37480000
H      -45.56010000     -33.32080000     -66.94360000
C      -47.53670000     -30.72980000     -72.43910000
H      -48.51870000     -30.98270000     -72.93830000
H      -47.70640000     -29.84100000     -71.84090000
C      -47.21080000     -31.96630000     -71.51780000
H      -46.31710000     -31.72640000     -70.90350000
H      -48.05960000     -32.08990000     -70.87300000
C      -46.01600000     -33.58560000     -68.92390000
H      -45.74220000     -32.50100000     -69.06440000
H      -47.06260000     -33.52270000     -68.69030000
C      -45.89360000     -34.60970000     -70.16690000
C      -45.42580000     -35.90400000     -70.04570000
C      -46.30190000     -34.34420000     -71.52490000
H      -44.97370000     -36.32160000     -69.11020000
C      -46.24260000     -35.53670000     -72.23370000
C      -46.96730000     -33.28830000     -72.20950000
C      -47.40360000     -33.64550000     -73.44500000
S      -45.50950000     -36.86650000     -71.43000000
S      -46.84310000     -35.31160000     -73.89760000
H      -48.08540000     -33.18720000     -74.09760000
