40
Properties=species:S:1:pos:R:3 #=T CELL(abcABC):=T 1.889726e+02=T 90.00000=T Traj:=T positionsangstrom=T Step:=T 0=T Bead:=T pbc="F F F"
C      -48.78620000     -31.70500000     -73.28750000
C      -47.48800000     -32.01180000     -73.71590000
C      -47.11890000     -33.33980000     -73.69340000
C      -48.01990000     -34.36140000     -73.24820000
C      -49.29600000     -34.04790000     -72.78760000
C      -49.74380000     -32.68810000     -72.87880000
H      -49.10480000     -30.66260000     -73.35610000
H      -46.29040000     -33.63090000     -74.30640000
H      -50.11570000     -34.73140000     -72.53700000
H      -50.71650000     -32.44690000     -72.53840000
C      -47.65650000     -35.83720000     -73.33430000
H      -46.74240000     -35.96750000     -73.94080000
H      -48.45280000     -36.44940000     -73.69460000
C      -46.55280000     -30.82010000     -73.97860000
H      -45.66530000     -31.08780000     -74.54990000
H      -46.97050000     -30.10250000     -74.67080000
S      -47.41350000     -36.60450000     -71.61690000
S      -46.05500000     -29.93780000     -72.45950000
C      -46.33640000     -35.39890000     -70.77160000
H      -46.80070000     -34.47930000     -70.43180000
H      -45.96760000     -35.97600000     -69.90050000
C      -44.59960000     -30.88880000     -71.79060000
H      -43.77930000     -30.12910000     -71.65650000
H      -44.39600000     -31.69970000     -72.51850000
C      -45.10720000     -31.50290000     -70.54110000
H      -45.55200000     -30.72230000     -69.82210000
H      -45.93970000     -32.16300000     -70.88820000
C      -45.14870000     -34.92180000     -71.65210000
H      -45.42580000     -33.91130000     -72.00580000
H      -45.01000000     -35.52440000     -72.52490000
C      -43.80490000     -34.67700000     -70.88310000
C      -42.86300000     -35.68130000     -70.71040000
C      -43.53040000     -33.57540000     -69.95630000
H      -42.84130000     -36.68710000     -71.20580000
C      -42.29970000     -33.76330000     -69.23020000
C      -43.99750000     -32.22180000     -69.75690000
C      -43.31260000     -31.66210000     -68.67150000
S      -41.57610000     -35.31180000     -69.60210000
S      -41.82650000     -32.45420000     -68.21870000
H      -43.63500000     -30.67090000     -68.33170000
