40
Properties=species:S:1:pos:R:3 #=T CELL(abcABC):=T 1.889726e+02=T 90.00000=T Traj:=T positionsangstrom=T Step:=T 0=T Bead:=T pbc="F F F"
C      -43.46020000     -32.15080000     -72.73270000
C      -44.13140000     -31.22260000     -71.87160000
C      -44.05500000     -31.37280000     -70.49590000
C      -43.41020000     -32.51850000     -69.95910000
C      -42.77960000     -33.47540000     -70.77760000
C      -42.79380000     -33.33410000     -72.18950000
H      -43.35310000     -31.96760000     -73.80370000
H      -44.32640000     -30.54840000     -69.80020000
H      -42.37520000     -34.36240000     -70.28490000
H      -42.52680000     -34.12530000     -72.94620000
C      -43.15470000     -32.57130000     -68.47020000
H      -43.60620000     -31.70640000     -67.89330000
H      -42.12470000     -32.55040000     -68.31670000
C      -44.87550000     -30.07000000     -72.55270000
H      -45.19480000     -29.31260000     -71.90750000
H      -44.21590000     -29.50340000     -73.17440000
S      -43.88490000     -34.06100000     -67.63420000
S      -46.08840000     -30.52270000     -73.82900000
C      -45.73770000     -33.77730000     -67.61550000
H      -46.02970000     -34.72020000     -67.28760000
H      -46.00740000     -32.93600000     -67.02410000
C      -47.61120000     -30.88660000     -72.88740000
H      -48.35540000     -31.06470000     -73.60720000
H      -47.92570000     -29.85330000     -72.44970000
C      -47.56540000     -31.96600000     -71.83910000
H      -47.14560000     -31.73490000     -70.90740000
H      -48.62140000     -32.20860000     -71.53020000
C      -46.38480000     -33.59950000     -69.01840000
H      -46.25960000     -32.58900000     -69.29560000
H      -47.47910000     -33.72270000     -68.83710000
C      -46.07300000     -34.60570000     -70.10310000
C      -45.46260000     -35.80640000     -69.88430000
C      -46.46140000     -34.40380000     -71.50530000
H      -45.06430000     -36.23050000     -68.90050000
C      -46.11770000     -35.49040000     -72.28410000
C      -46.97130000     -33.29770000     -72.29120000
C      -47.08660000     -33.66710000     -73.63410000
S      -45.18960000     -36.76120000     -71.39710000
S      -46.50270000     -35.26270000     -73.90810000
H      -47.65580000     -33.01000000     -74.34890000
