40
Properties=species:S:1:pos:R:3 #=T CELL(abcABC):=T 1.889726e+02=T 90.00000=T Traj:=T positionsangstrom=T Step:=T 0=T Bead:=T pbc="F F F"
C      -43.43160000     -32.19920000     -72.75930000
C      -44.08620000     -31.27020000     -71.95060000
C      -43.97960000     -31.37460000     -70.52830000
C      -43.31580000     -32.46940000     -69.96880000
C      -42.63970000     -33.45090000     -70.75210000
C      -42.78140000     -33.28730000     -72.13600000
H      -43.70400000     -32.14300000     -73.79790000
H      -44.71980000     -30.77170000     -69.89040000
H      -42.07880000     -34.17460000     -70.24050000
H      -42.17530000     -33.84900000     -72.81990000
C      -43.26410000     -32.54520000     -68.44530000
H      -43.89300000     -31.65990000     -68.16940000
H      -42.26590000     -32.33400000     -68.14120000
C      -44.82350000     -30.13410000     -72.53310000
H      -45.25820000     -29.58440000     -71.65720000
H      -44.05670000     -29.42310000     -73.09000000
S      -43.81010000     -34.07600000     -67.61760000
S      -46.20720000     -30.54620000     -73.74360000
C      -45.62300000     -33.90270000     -67.73770000
H      -46.02710000     -34.83930000     -67.28180000
H      -45.94300000     -33.21180000     -66.89270000
C      -47.69440000     -30.80460000     -72.70450000
H      -48.54790000     -31.01030000     -73.29900000
H      -47.89820000     -29.92650000     -72.09130000
C      -47.54540000     -32.06210000     -71.73570000
H      -46.83580000     -31.60990000     -70.99180000
H      -48.47980000     -32.24550000     -71.20910000
C      -46.22170000     -33.48100000     -69.06500000
H      -45.76770000     -32.54980000     -69.36970000
H      -47.29720000     -33.16680000     -68.90710000
C      -46.05890000     -34.49570000     -70.14180000
C      -45.43810000     -35.71820000     -69.97010000
C      -46.48500000     -34.38440000     -71.53250000
H      -44.89090000     -36.05930000     -69.08550000
C      -46.11780000     -35.46710000     -72.32080000
C      -47.05300000     -33.32450000     -72.32080000
C      -47.20710000     -33.72970000     -73.67220000
S      -45.35670000     -36.79990000     -71.38680000
S      -46.44690000     -35.24180000     -73.98910000
H      -47.85040000     -33.16370000     -74.43940000
