40
Properties=species:S:1:pos:R:3 #=T CELL(abcABC):=T 1.889726e+02=T 90.00000=T Traj:=T positionsangstrom=T Step:=T 0=T Bead:=T pbc="F F F"
C      -43.47540000     -32.30510000     -72.74500000
C      -44.13330000     -31.30360000     -71.92230000
C      -44.05560000     -31.31670000     -70.49710000
C      -43.21990000     -32.32030000     -69.92040000
C      -42.61940000     -33.30470000     -70.72290000
C      -42.74970000     -33.32510000     -72.13450000
H      -43.76350000     -32.23490000     -73.78610000
H      -44.38480000     -30.41360000     -70.07230000
H      -42.09840000     -34.07910000     -70.19250000
H      -42.46090000     -34.19170000     -72.64880000
C      -43.04230000     -32.37290000     -68.44490000
H      -43.40600000     -31.51400000     -67.91100000
H      -41.97380000     -32.60390000     -68.08850000
C      -44.86720000     -30.14050000     -72.54080000
H      -45.36990000     -29.59970000     -71.81560000
H      -44.18850000     -29.51310000     -73.03660000
S      -43.72370000     -34.01880000     -67.68180000
S      -46.25230000     -30.66440000     -73.73120000
C      -45.52170000     -33.82280000     -67.66060000
H      -45.93770000     -34.70440000     -67.16320000
H      -45.76050000     -33.03460000     -66.95990000
C      -47.79370000     -30.90140000     -72.69930000
H      -48.49210000     -31.05170000     -73.61180000
H      -47.99450000     -29.94250000     -72.23780000
C      -47.48480000     -31.99560000     -71.63930000
H      -46.73270000     -31.62650000     -70.81460000
H      -48.41970000     -32.23350000     -71.17480000
C      -46.29100000     -33.53850000     -69.02190000
H      -45.81570000     -32.61320000     -69.48330000
H      -47.30170000     -33.29840000     -68.82380000
C      -46.05870000     -34.60540000     -70.15550000
C      -45.50640000     -35.86790000     -70.02160000
C      -46.26530000     -34.33890000     -71.54860000
H      -45.17590000     -36.32110000     -69.12050000
C      -45.98980000     -35.42250000     -72.41590000
C      -46.96800000     -33.28260000     -72.22920000
C      -47.27120000     -33.62350000     -73.57130000
S      -45.39150000     -36.83840000     -71.48520000
S      -46.64880000     -35.25160000     -73.98260000
H      -47.58820000     -33.00210000     -74.42830000
