40
Properties=species:S:1:pos:R:3 #=T CELL(abcABC):=T 1.889726e+02=T 90.00000=T Traj:=T positionsangstrom=T Step:=T 0=T Bead:=T pbc="F F F"
C      -49.23100000     -31.81520000     -73.77160000
C      -47.78730000     -31.83930000     -73.76750000
C      -47.19090000     -33.12280000     -73.66870000
C      -47.94090000     -34.32710000     -73.61780000
C      -49.35910000     -34.25770000     -73.65250000
C      -50.00740000     -32.97520000     -73.60000000
H      -49.72530000     -30.79820000     -73.78470000
H      -46.11830000     -33.18710000     -73.68670000
H      -49.89090000     -35.11780000     -73.93130000
H      -51.07070000     -32.76060000     -73.76710000
C      -47.16400000     -35.60590000     -73.51070000
H      -46.18070000     -35.42810000     -73.97190000
H      -47.64730000     -36.46400000     -74.16430000
C      -46.84600000     -30.66350000     -73.93550000
H      -46.05360000     -30.96220000     -74.64290000
H      -47.49360000     -29.86270000     -74.38440000
S      -47.15900000     -36.12430000     -71.71820000
S      -46.17970000     -30.04980000     -72.37230000
C      -45.44760000     -36.36450000     -71.13220000
H      -45.44390000     -36.30540000     -70.08540000
H      -45.14370000     -37.37810000     -71.29790000
C      -44.89380000     -31.29420000     -71.93370000
H      -43.94900000     -30.70490000     -71.82910000
H      -44.62920000     -31.86960000     -72.83900000
C      -45.29700000     -32.15590000     -70.70340000
H      -46.00440000     -31.50050000     -70.21410000
H      -45.73850000     -33.04500000     -71.04930000
C      -44.49440000     -35.24060000     -71.72530000
H      -45.02390000     -34.39570000     -72.19920000
H      -43.87650000     -35.61580000     -72.56980000
C      -43.46820000     -34.80010000     -70.65430000
C      -42.42940000     -35.62240000     -70.20460000
C      -43.39830000     -33.60350000     -69.81900000
H      -42.22020000     -36.63620000     -70.51670000
C      -42.40290000     -33.62210000     -68.83190000
C      -44.18710000     -32.43050000     -69.76970000
C      -43.69780000     -31.52200000     -68.87520000
S      -41.30890000     -34.94730000     -68.99940000
S      -42.47350000     -32.20330000     -67.80370000
H      -44.24210000     -30.58630000     -68.63540000
