40
Properties=species:S:1:pos:R:3 #=T CELL(abcABC):=T 1.889726e+02=T 90.00000=T Traj:=T positionsangstrom=T Step:=T 0=T Bead:=T pbc="F F F"
C      -45.32310000     -37.07170000     -71.16990000
C      -45.74970000     -36.50930000     -72.38110000
C      -46.96630000     -35.75700000     -72.42290000
C      -47.64730000     -35.61730000     -71.22040000
C      -47.14130000     -36.05230000     -69.96900000
C      -46.00930000     -36.80930000     -69.98010000
H      -44.32620000     -37.52030000     -70.99790000
H      -47.33370000     -35.37970000     -73.37570000
H      -47.68100000     -35.78310000     -69.03360000
H      -45.51420000     -37.12960000     -69.09800000
C      -48.96440000     -34.91260000     -71.25510000
H      -49.72190000     -35.66610000     -71.00780000
H      -49.27020000     -34.48440000     -72.20910000
C      -44.88170000     -36.88280000     -73.55620000
H      -43.93970000     -37.09720000     -73.12580000
H      -45.27190000     -37.68160000     -74.19800000
S      -49.19260000     -33.53450000     -69.96840000
S      -44.58200000     -35.45660000     -74.72750000
C      -47.78670000     -32.33040000     -70.19250000
H      -47.89020000     -31.80200000     -71.19450000
H      -47.98680000     -31.55060000     -69.44390000
C      -43.56230000     -34.18630000     -73.81760000
H      -43.59220000     -33.27820000     -74.49200000
H      -42.55340000     -34.51120000     -73.74030000
C      -44.00390000     -33.77770000     -72.38610000
H      -45.05700000     -33.78440000     -72.36790000
H      -43.66980000     -34.61840000     -71.70970000
C      -46.40050000     -32.94390000     -70.04180000
H      -46.27110000     -33.62670000     -70.83430000
H      -46.27040000     -33.52320000     -69.14420000
C      -45.33750000     -31.79140000     -70.01410000
C      -45.43520000     -30.72340000     -69.12190000
C      -44.11890000     -31.66340000     -70.82810000
H      -46.25600000     -30.52020000     -68.44500000
C      -43.41980000     -30.51030000     -70.46940000
C      -43.46460000     -32.45020000     -71.85740000
C      -42.39620000     -31.73300000     -72.31170000
S      -44.09820000     -29.59780000     -69.17490000
S      -41.92520000     -30.27240000     -71.33740000
H      -41.73780000     -32.01730000     -73.17480000
