40
Properties=species:S:1:pos:R:3 #=T CELL(abcABC):=T 1.889726e+02=T 90.00000=T Traj:=T positionsangstrom=T Step:=T 0=T Bead:=T pbc="F F F"
C      -49.01760000     -31.75110000     -73.71560000
C      -47.66020000     -31.91220000     -74.02070000
C      -47.09610000     -33.18420000     -73.98140000
C      -47.89130000     -34.32580000     -73.52080000
C      -49.20710000     -34.09840000     -73.18410000
C      -49.80870000     -32.88410000     -73.35110000
H      -49.48000000     -30.75640000     -73.84350000
H      -46.05500000     -33.27230000     -74.28180000
H      -49.74820000     -34.99180000     -72.74680000
H      -50.78870000     -32.69240000     -73.04500000
C      -47.30870000     -35.66430000     -73.36100000
H      -46.33660000     -35.77710000     -73.79290000
H      -48.00130000     -36.33550000     -73.76120000
C      -46.87740000     -30.63840000     -74.19810000
H      -45.92590000     -30.67200000     -74.70440000
H      -47.34760000     -29.80510000     -74.68210000
S      -47.34070000     -36.19240000     -71.56740000
S      -46.36270000     -29.91840000     -72.44940000
C      -45.63020000     -36.04630000     -70.89750000
H      -45.85500000     -35.59600000     -69.93700000
H      -45.11080000     -37.06710000     -70.75530000
C      -44.91550000     -31.04790000     -71.86360000
H      -44.07430000     -30.39850000     -71.60240000
H      -44.64660000     -31.75180000     -72.64130000
C      -45.38650000     -31.80870000     -70.54080000
H      -45.94270000     -31.16230000     -69.85880000
H      -46.13740000     -32.54120000     -70.76310000
C      -44.62800000     -35.13490000     -71.71730000
H      -45.25650000     -34.30390000     -72.15360000
H      -44.27130000     -35.77380000     -72.52050000
C      -43.49560000     -34.83050000     -70.74410000
C      -42.43390000     -35.68550000     -70.51570000
C      -43.38260000     -33.69420000     -69.83950000
H      -42.07690000     -36.55410000     -71.09530000
C      -42.30650000     -33.73950000     -68.96640000
C      -44.15860000     -32.45540000     -69.71400000
C      -43.66490000     -31.70970000     -68.69860000
S      -41.36010000     -35.24620000     -69.12000000
S      -42.17610000     -32.28800000     -67.97390000
H      -44.07750000     -30.74030000     -68.57050000
