40
Properties=species:S:1:pos:R:3 #=T CELL(abcABC):=T 1.889726e+02=T 90.00000=T Traj:=T positionsangstrom=T Step:=T 0=T Bead:=T pbc="F F F"
C      -44.99750000     -36.94260000     -71.39460000
C      -45.66680000     -36.57300000     -72.51250000
C      -46.92940000     -35.99470000     -72.34140000
C      -47.56200000     -36.01740000     -71.09050000
C      -46.95430000     -36.64770000     -69.99450000
C      -45.67270000     -37.16640000     -70.09690000
H      -43.96020000     -37.19400000     -71.44450000
H      -47.48170000     -35.55600000     -73.21500000
H      -47.52520000     -36.57240000     -69.13530000
H      -45.12550000     -37.52480000     -69.21430000
C      -48.84670000     -35.24520000     -71.01840000
H      -49.56410000     -35.83550000     -70.41510000
H      -49.19210000     -35.15840000     -72.06690000
C      -45.02110000     -36.62590000     -73.86190000
H      -43.97780000     -36.83270000     -73.76130000
H      -45.48170000     -37.37860000     -74.48460000
S      -48.93800000     -33.57870000     -70.23200000
S      -45.03970000     -35.08580000     -74.89000000
C      -47.44020000     -32.71360000     -70.77430000
H      -47.12540000     -33.04640000     -71.78050000
H      -47.75510000     -31.66600000     -70.85680000
C      -44.08890000     -33.71470000     -73.97820000
H      -44.36350000     -32.82620000     -74.57380000
H      -43.02420000     -33.80690000     -74.03860000
C      -44.47380000     -33.37230000     -72.54300000
H      -45.52400000     -33.24330000     -72.55610000
H      -44.36890000     -34.27710000     -71.93580000
C      -46.37100000     -32.78450000     -69.67960000
H      -45.96120000     -33.78190000     -69.74300000
H      -46.91340000     -32.72540000     -68.77030000
C      -45.36370000     -31.74190000     -69.71390000
C      -45.28890000     -30.77170000     -68.74580000
C      -44.19270000     -31.58090000     -70.61240000
H      -45.99690000     -30.62650000     -67.96300000
C      -43.32080000     -30.52310000     -70.23630000
C      -43.71760000     -32.21180000     -71.87650000
C      -42.52380000     -31.65100000     -72.26360000
S      -43.84240000     -29.71190000     -68.84480000
S      -42.01590000     -30.27480000     -71.29670000
H      -41.89870000     -31.97480000     -72.98610000
