40
Properties=species:S:1:pos:R:3 #=T CELL(abcABC):=T 1.889726e+02=T 90.00000=T Traj:=T positionsangstrom=T Step:=T 0=T Bead:=T pbc="F F F"
C      -45.03380000     -28.98250000     -70.56440000
C      -44.17300000     -30.00320000     -71.00490000
C      -44.55770000     -30.58480000     -72.27500000
C      -45.71430000     -30.21370000     -73.05600000
C      -46.52060000     -29.24610000     -72.50050000
C      -46.19870000     -28.65060000     -71.27640000
H      -44.90550000     -28.55550000     -69.62920000
H      -43.94880000     -31.44640000     -72.56170000
H      -47.48130000     -28.92220000     -72.94420000
H      -46.91670000     -27.88600000     -70.95420000
C      -46.07160000     -30.90490000     -74.32930000
H      -45.24630000     -31.43020000     -74.87730000
H      -46.53990000     -30.13280000     -74.96360000
C      -43.20660000     -30.50950000     -70.07350000
H      -42.56830000     -31.30300000     -70.52990000
H      -42.48900000     -29.79150000     -69.61800000
S      -47.52570000     -32.02470000     -74.22200000
S      -44.15150000     -31.16510000     -68.59900000
C      -47.00990000     -33.31350000     -72.87750000
H      -47.17520000     -32.88130000     -71.91030000
H      -47.75680000     -34.08270000     -73.06650000
C      -44.18250000     -33.02820000     -68.94450000
H      -43.98910000     -33.55560000     -68.00120000
H      -43.41660000     -33.23470000     -69.68400000
C      -45.50550000     -33.58450000     -69.49850000
H      -46.29180000     -33.49480000     -68.69190000
H      -45.94240000     -33.04160000     -70.30180000
C      -45.56690000     -33.98880000     -72.99540000
H      -44.84240000     -33.43890000     -72.38880000
H      -45.31630000     -34.10080000     -74.04940000
C      -45.50600000     -35.39250000     -72.42790000
C      -45.46430000     -36.51180000     -73.22730000
C      -45.31190000     -35.78450000     -71.00980000
H      -45.75120000     -36.50690000     -74.21250000
C      -45.09350000     -37.12120000     -70.78290000
C      -45.22490000     -35.03710000     -69.80010000
C      -44.82220000     -35.84320000     -68.75140000
S      -45.11440000     -38.06560000     -72.32330000
S      -44.57880000     -37.50750000     -69.21120000
H      -44.78750000     -35.49430000     -67.73580000
