40
Properties=species:S:1:pos:R:3 #=T CELL(abcABC):=T 1.889726e+02=T 90.00000=T Traj:=T positionsangstrom=T Step:=T 0=T Bead:=T pbc="F F F"
C      -45.70030000     -37.72500000     -72.03530000
C      -46.15170000     -36.61480000     -72.80590000
C      -47.08120000     -35.76780000     -72.29190000
C      -47.73330000     -36.02480000     -71.11450000
C      -47.34330000     -37.16160000     -70.39770000
C      -46.40440000     -38.03730000     -70.87440000
H      -45.02950000     -38.50070000     -72.44160000
H      -47.31970000     -34.78330000     -72.74820000
H      -47.95970000     -37.36870000     -69.48510000
H      -46.13170000     -38.91240000     -70.24520000
C      -48.78390000     -35.05340000     -70.55710000
H      -49.61950000     -35.79020000     -70.34810000
H      -49.14430000     -34.46230000     -71.36830000
C      -45.43970000     -36.26730000     -74.16740000
H      -44.36980000     -36.51170000     -74.08460000
H      -45.82610000     -37.00540000     -74.86630000
S      -48.24050000     -34.10640000     -69.14880000
S      -45.56950000     -34.64120000     -74.89560000
C      -47.10890000     -32.82000000     -69.81580000
H      -47.14650000     -32.72610000     -70.92760000
H      -47.51400000     -31.93520000     -69.30120000
C      -44.28760000     -33.61430000     -74.02780000
H      -44.06770000     -32.66810000     -74.50170000
H      -43.30820000     -34.14030000     -74.04670000
C      -44.46230000     -33.21350000     -72.49340000
H      -45.50960000     -33.12190000     -72.25830000
H      -44.06370000     -33.91740000     -71.76680000
C      -45.68130000     -33.08550000     -69.36740000
H      -45.24130000     -33.83750000     -70.08250000
H      -45.50590000     -33.52550000     -68.35390000
C      -44.83610000     -31.84500000     -69.65690000
C      -44.56340000     -31.04940000     -68.58960000
C      -44.05880000     -31.37900000     -70.76880000
H      -44.93530000     -31.16480000     -67.57210000
C      -43.28050000     -30.21450000     -70.50090000
C      -43.80540000     -31.90330000     -72.11860000
C      -42.78800000     -31.23190000     -72.75070000
S      -43.52620000     -29.67830000     -68.84450000
S      -42.10200000     -29.89410000     -71.80150000
H      -42.35140000     -31.49660000     -73.71280000
