40
Properties=species:S:1:pos:R:3 #=T CELL(abcABC):=T 1.889726e+02=T 90.00000=T Traj:=T positionsangstrom=T Step:=T 0=T Bead:=T pbc="F F F"
C      -43.04450000     -32.22280000     -74.65830000
C      -44.39140000     -31.95830000     -74.53670000
C      -44.72760000     -31.04990000     -73.53840000
C      -43.73920000     -30.53570000     -72.66430000
C      -42.44720000     -31.01040000     -72.72430000
C      -42.04020000     -31.85140000     -73.79120000
H      -42.72960000     -32.90550000     -75.41330000
H      -45.69490000     -30.62420000     -73.35860000
H      -41.64560000     -30.66560000     -72.05180000
H      -41.12420000     -32.23490000     -73.93750000
C      -44.12190000     -29.52940000     -71.58810000
H      -45.21220000     -29.38270000     -71.79080000
H      -43.71290000     -28.51280000     -71.75300000
C      -45.36900000     -32.60370000     -75.44320000
H      -46.35140000     -32.11910000     -75.43740000
H      -45.03170000     -32.47330000     -76.52640000
S      -43.86520000     -30.09490000     -69.82290000
S      -45.58490000     -34.39220000     -75.01160000
C      -44.40820000     -31.91650000     -69.70610000
H      -44.06780000     -32.48940000     -70.62560000
H      -43.87200000     -32.30850000     -68.79260000
C      -46.14730000     -34.40510000     -73.25690000
H      -46.87660000     -35.19180000     -73.28620000
H      -46.78210000     -33.51740000     -73.13900000
C      -45.11860000     -34.48840000     -72.13100000
H      -44.41100000     -35.25990000     -72.49010000
H      -44.75840000     -33.41210000     -71.91940000
C      -45.93090000     -32.07560000     -69.51240000
H      -46.43040000     -31.95620000     -70.50310000
H      -46.33680000     -31.30000000     -68.85200000
C      -46.25110000     -33.45420000     -68.95640000
C      -46.87760000     -33.57620000     -67.75660000
C      -46.20090000     -34.74990000     -69.66990000
H      -47.09480000     -32.80310000     -67.06850000
C      -46.78300000     -35.75940000     -68.90980000
C      -45.79330000     -35.23880000     -70.93950000
C      -46.07530000     -36.60070000     -71.08770000
S      -47.42410000     -35.20960000     -67.35630000
S      -46.86770000     -37.28740000     -69.71260000
H      -45.67240000     -37.18510000     -71.93600000
