40
Properties=species:S:1:pos:R:3 #=T CELL(abcABC):=T 1.889726e+02=T 90.00000=T Traj:=T positionsangstrom=T Step:=T 0=T Bead:=T pbc="F F F"
C      -49.21150000     -34.58150000     -69.59440000
C      -48.78310000     -33.70130000     -70.61720000
C      -48.06770000     -32.52760000     -70.20020000
C      -47.62810000     -32.37640000     -68.86280000
C      -48.09120000     -33.26550000     -67.93140000
C      -48.85970000     -34.41130000     -68.26020000
H      -49.76990000     -35.40330000     -69.88700000
H      -47.78690000     -31.87230000     -70.98200000
H      -47.87570000     -33.19630000     -66.90170000
H      -49.10450000     -35.16980000     -67.50410000
C      -46.65490000     -31.28210000     -68.48130000
H      -45.78380000     -31.58280000     -67.92580000
H      -47.00290000     -30.40710000     -67.89190000
C      -49.17060000     -34.01120000     -72.03940000
H      -49.22220000     -35.06880000     -72.25640000
H      -50.18950000     -33.70970000     -72.24980000
S      -45.89950000     -30.45100000     -70.00180000
S      -48.14400000     -33.19950000     -73.29000000
C      -44.24140000     -31.16280000     -70.19880000
H      -43.84180000     -30.94070000     -71.17430000
H      -43.57550000     -30.59740000     -69.57920000
C      -46.49080000     -33.82700000     -72.77550000
H      -46.30090000     -34.79010000     -73.23300000
H      -46.40670000     -34.07640000     -71.72930000
C      -45.39690000     -32.90010000     -73.12800000
H      -45.61250000     -32.39300000     -74.07550000
H      -45.24360000     -32.03090000     -72.45280000
C      -44.16810000     -32.73460000     -69.90050000
H      -45.11640000     -33.19080000     -69.99450000
H      -43.97240000     -32.79150000     -68.82690000
C      -43.19980000     -33.54160000     -70.69080000
C      -42.08000000     -34.11390000     -70.10140000
C      -43.22780000     -33.91880000     -72.11860000
H      -41.65160000     -34.02850000     -69.13420000
C      -42.16750000     -34.75050000     -72.49030000
C      -44.03440000     -33.60610000     -73.24520000
C      -43.58000000     -34.12760000     -74.45790000
S      -41.06870000     -35.08120000     -71.14170000
S      -42.01720000     -34.98240000     -74.24800000
H      -43.98750000     -34.01740000     -75.45060000
