40
Properties=species:S:1:pos:R:3 #=T CELL(abcABC):=T 1.889726e+02=T 90.00000=T Traj:=T positionsangstrom=T Step:=T 0=T Bead:=T pbc="F F F"
C      -42.06650000     -31.14260000     -73.14770000
C      -43.15430000     -31.75210000     -73.72190000
C      -44.45230000     -31.33690000     -73.47750000
C      -44.66090000     -30.11750000     -72.75510000
C      -43.53430000     -29.44440000     -72.35050000
C      -42.23910000     -29.91090000     -72.49420000
H      -41.12260000     -31.65370000     -73.35000000
H      -45.33550000     -31.96620000     -73.75770000
H      -43.65040000     -28.52910000     -71.80790000
H      -41.39000000     -29.20850000     -72.24280000
C      -46.06070000     -29.55560000     -72.46100000
H      -46.65620000     -30.12090000     -73.21970000
H      -46.16520000     -28.50630000     -72.68630000
C      -43.03580000     -33.01220000     -74.49420000
H      -43.87720000     -33.18520000     -75.24340000
H      -42.20250000     -32.88980000     -75.25360000
S      -46.59720000     -29.82970000     -70.76010000
S      -42.64940000     -34.52850000     -73.55400000
C      -46.18770000     -31.69730000     -70.29720000
H      -45.14690000     -31.83090000     -70.53820000
H      -46.33280000     -31.76620000     -69.17740000
C      -44.03970000     -34.89710000     -72.50680000
H      -44.15730000     -36.04670000     -72.55830000
H      -44.98260000     -34.62250000     -72.90500000
C      -43.96250000     -34.40430000     -70.99500000
H      -43.03840000     -34.70510000     -70.57880000
H      -44.08170000     -33.32600000     -70.92870000
C      -47.12890000     -32.67150000     -71.07830000
H      -46.58470000     -32.79380000     -72.00260000
H      -48.02190000     -32.14800000     -71.24620000
C      -47.39970000     -33.95920000     -70.28890000
C      -48.64090000     -34.32240000     -69.81390000
C      -46.38180000     -35.02380000     -70.08300000
H      -49.46220000     -33.58140000     -69.78760000
C      -46.97950000     -36.12890000     -69.39420000
C      -44.96180000     -35.21360000     -70.28420000
C      -44.56370000     -36.44870000     -69.78290000
S      -48.71480000     -36.00680000     -69.17590000
S      -45.85150000     -37.38390000     -69.00840000
H      -43.53910000     -36.81450000     -69.87880000
