40
Properties=species:S:1:pos:R:3 #=T CELL(abcABC):=T 1.889726e+02=T 90.00000=T Traj:=T positionsangstrom=T Step:=T 0=T Bead:=T pbc="F F F"
C      -42.09750000     -31.01600000     -72.99300000
C      -43.12560000     -31.77880000     -73.54740000
C      -44.41740000     -31.26000000     -73.53530000
C      -44.75860000     -30.15020000     -72.80080000
C      -43.71170000     -29.46490000     -72.12430000
C      -42.37610000     -29.86680000     -72.21530000
H      -41.09080000     -31.35460000     -73.11840000
H      -45.15040000     -31.87350000     -74.07850000
H      -43.98850000     -28.59370000     -71.52690000
H      -41.62560000     -29.36470000     -71.63250000
C      -46.19860000     -29.71760000     -72.65340000
H      -46.95160000     -30.25640000     -73.24660000
H      -46.40040000     -28.67770000     -72.96900000
C      -42.81440000     -32.96870000     -74.33070000
H      -43.66700000     -33.20320000     -74.87660000
H      -41.97470000     -32.81380000     -74.98050000
S      -46.80980000     -29.89430000     -70.86510000
S      -42.45230000     -34.62320000     -73.47490000
C      -46.35860000     -31.54620000     -70.35460000
H      -45.26240000     -31.72990000     -70.27970000
H      -46.83920000     -31.70490000     -69.40090000
C      -44.03300000     -34.94650000     -72.53200000
H      -44.09180000     -36.01740000     -72.49450000
H      -44.88760000     -34.47140000     -73.07340000
C      -44.04700000     -34.36390000     -71.13340000
H      -43.05770000     -34.28280000     -70.66680000
H      -44.42130000     -33.33440000     -71.14450000
C      -46.98460000     -32.60730000     -71.20450000
H      -46.45750000     -32.81860000     -72.15180000
H      -47.98140000     -32.26420000     -71.52440000
C      -47.30560000     -34.07520000     -70.50760000
C      -48.62840000     -34.45690000     -70.21040000
C      -46.30510000     -35.02070000     -70.05690000
H      -49.48770000     -33.92590000     -70.52360000
C      -46.93650000     -36.04320000     -69.32890000
C      -44.92000000     -35.21100000     -70.19640000
C      -44.48780000     -36.37300000     -69.57070000
S      -48.67230000     -35.97700000     -69.33900000
S      -45.82540000     -37.32720000     -68.87420000
H      -43.43270000     -36.74200000     -69.29000000
