40
Properties=species:S:1:pos:R:3 #=T CELL(abcABC):=T 1.889726e+02=T 90.00000=T Traj:=T positionsangstrom=T Step:=T 0=T Bead:=T pbc="F F F"
C      -45.69640000     -37.35880000     -72.64510000
C      -46.18410000     -36.11880000     -73.11480000
C      -47.16630000     -35.38430000     -72.45110000
C      -47.58980000     -35.83890000     -71.17800000
C      -47.14850000     -37.07300000     -70.69640000
C      -46.14610000     -37.82310000     -71.38020000
H      -44.85750000     -37.90060000     -73.10430000
H      -47.43830000     -34.41710000     -72.88170000
H      -47.27610000     -37.33630000     -69.59470000
H      -45.79070000     -38.81970000     -71.07720000
C      -48.60660000     -35.01520000     -70.40790000
H      -49.53360000     -35.50810000     -70.17210000
H      -48.81900000     -34.08030000     -70.91290000
C      -45.48990000     -35.61490000     -74.34640000
H      -44.43060000     -35.56620000     -74.06650000
H      -45.62160000     -36.37130000     -75.16610000
S      -47.97890000     -34.55450000     -68.73720000
S      -45.91340000     -33.95650000     -75.16870000
C      -46.92120000     -33.15370000     -69.18130000
H      -47.36410000     -32.66540000     -70.08340000
H      -46.90080000     -32.36090000     -68.39720000
C      -44.87840000     -32.72820000     -74.30540000
H      -45.07310000     -31.80310000     -74.88070000
H      -43.83170000     -32.95840000     -74.39070000
C      -45.26560000     -32.52150000     -72.86920000
H      -46.32740000     -32.28590000     -72.92450000
H      -45.37080000     -33.45570000     -72.31610000
C      -45.47410000     -33.58340000     -69.57840000
H      -45.58040000     -34.04880000     -70.60680000
H      -45.20420000     -34.32380000     -68.93600000
C      -44.39740000     -32.54200000     -69.55230000
C      -43.74090000     -32.33400000     -68.38570000
C      -44.02790000     -31.66690000     -70.67220000
H      -43.91210000     -32.76290000     -67.33720000
C      -43.10280000     -30.71680000     -70.24880000
C      -44.36970000     -31.59290000     -72.06500000
C      -43.69510000     -30.45530000     -72.63520000
S      -42.61740000     -30.95880000     -68.63460000
S      -42.71190000     -29.57020000     -71.56120000
H      -43.95210000     -30.01770000     -73.55450000
