40
Properties=species:S:1:pos:R:3 #=T CELL(abcABC):=T 1.889726e+02=T 90.00000=T Traj:=T positionsangstrom=T Step:=T 0=T Bead:=T pbc="F F F"
C      -49.46530000     -34.50530000     -69.46850000
C      -48.97040000     -33.71850000     -70.46850000
C      -48.07140000     -32.69080000     -70.14980000
C      -47.55600000     -32.46860000     -68.83900000
C      -47.97590000     -33.38760000     -67.85200000
C      -48.88020000     -34.33320000     -68.18960000
H      -50.20040000     -35.33600000     -69.71960000
H      -47.86010000     -31.97490000     -70.96050000
H      -47.48020000     -33.40010000     -66.89310000
H      -49.42470000     -34.78180000     -67.38570000
C      -46.55350000     -31.42450000     -68.54050000
H      -45.79510000     -31.93720000     -67.93150000
H      -47.02510000     -30.69720000     -67.92460000
C      -49.36570000     -33.91700000     -71.94440000
H      -49.49690000     -35.00130000     -72.11660000
H      -50.35650000     -33.45090000     -72.16320000
S      -45.78270000     -30.48920000     -69.93790000
S      -48.20350000     -33.11270000     -73.17120000
C      -44.17000000     -31.32780000     -70.25450000
H      -43.98980000     -31.09230000     -71.32130000
H      -43.45790000     -30.79470000     -69.55920000
C      -46.49350000     -33.77240000     -72.92470000
H      -46.33220000     -34.69470000     -73.52230000
H      -46.37410000     -33.89040000     -71.84080000
C      -45.38420000     -32.82190000     -73.36710000
H      -45.61950000     -32.56040000     -74.39650000
H      -45.48640000     -31.90930000     -72.70530000
C      -44.27910000     -32.87130000     -70.00940000
H      -45.29320000     -33.24740000     -70.41120000
H      -44.18100000     -33.18110000     -68.95810000
C      -43.16010000     -33.60030000     -70.67550000
C      -42.10110000     -34.23580000     -70.07590000
C      -43.15040000     -33.83970000     -72.12470000
H      -41.96290000     -34.32930000     -69.00040000
C      -42.03510000     -34.55670000     -72.57240000
C      -43.98940000     -33.45160000     -73.25210000
C      -43.41230000     -33.85410000     -74.46450000
S      -41.09330000     -35.23590000     -71.23960000
S      -42.00910000     -34.87420000     -74.27130000
H      -43.88100000     -33.80110000     -75.44560000
