40
Properties=species:S:1:pos:R:3 #=T CELL(abcABC):=T 1.889726e+02=T 90.00000=T Traj:=T positionsangstrom=T Step:=T 0=T Bead:=T pbc="F F F"
C      -45.59250000     -37.21130000     -72.70120000
C      -46.13200000     -35.95900000     -73.11660000
C      -47.13400000     -35.30890000     -72.38220000
C      -47.59920000     -35.82430000     -71.19610000
C      -47.02030000     -37.03590000     -70.74600000
C      -46.09310000     -37.75410000     -71.51090000
H      -44.77670000     -37.68340000     -73.28150000
H      -47.49230000     -34.35560000     -72.81720000
H      -47.39520000     -37.61160000     -69.93370000
H      -45.59730000     -38.69750000     -71.11470000
C      -48.66520000     -35.13920000     -70.35920000
H      -49.47870000     -35.83310000     -70.05840000
H      -49.18580000     -34.32000000     -70.93310000
C      -45.68880000     -35.46770000     -74.46110000
H      -44.64480000     -35.44450000     -74.53090000
H      -46.01100000     -36.16040000     -75.25290000
S      -48.05900000     -34.41680000     -68.80030000
S      -46.17730000     -33.84660000     -75.11390000
C      -46.73510000     -33.18570000     -69.19170000
H      -47.24520000     -32.45710000     -69.83610000
H      -46.48840000     -32.58200000     -68.27770000
C      -44.92920000     -32.68020000     -74.25570000
H      -44.88430000     -31.78470000     -74.78940000
H      -43.92700000     -33.25160000     -74.36910000
C      -45.30270000     -32.45740000     -72.78620000
H      -46.33780000     -32.13800000     -72.60960000
H      -45.17690000     -33.40940000     -72.26220000
C      -45.43110000     -33.81950000     -69.69460000
H      -45.46100000     -34.17540000     -70.76110000
H      -44.97430000     -34.63300000     -69.09620000
C      -44.39660000     -32.68240000     -69.61720000
C      -43.71290000     -32.45660000     -68.48010000
C      -43.90460000     -31.82170000     -70.72460000
H      -43.77830000     -32.87510000     -67.47760000
C      -42.91880000     -30.92260000     -70.24080000
C      -44.37350000     -31.51730000     -72.08410000
C      -43.75850000     -30.38280000     -72.59890000
S      -42.55680000     -31.12740000     -68.58000000
S      -42.63770000     -29.58440000     -71.42590000
H      -43.87590000     -30.08170000     -73.60690000
