40
Properties=species:S:1:pos:R:3 #=T CELL(abcABC):=T 1.889726e+02=T 90.00000=T Traj:=T positionsangstrom=T Step:=T 0=T Bead:=T pbc="F F F"
C      -42.60780000     -30.64920000     -71.79200000
C      -43.08690000     -31.30630000     -72.96220000
C      -44.41370000     -31.15930000     -73.33240000
C      -45.26540000     -30.21440000     -72.63450000
C      -44.73440000     -29.54200000     -71.52680000
C      -43.44660000     -29.72430000     -71.12400000
H      -41.62180000     -30.90850000     -71.40640000
H      -44.74260000     -31.61920000     -74.28650000
H      -45.36450000     -28.86760000     -70.93990000
H      -43.11150000     -29.14450000     -70.31230000
C      -46.72900000     -29.98970000     -73.05460000
H      -47.02170000     -30.56150000     -73.97850000
H      -46.96620000     -28.94770000     -73.26750000
C      -42.17400000     -32.18420000     -73.79720000
H      -42.84360000     -32.68000000     -74.58410000
H      -41.25410000     -31.68670000     -74.23610000
S      -48.16120000     -30.48410000     -71.92140000
S      -41.40550000     -33.56320000     -72.71880000
C      -47.56170000     -31.97240000     -70.92490000
H      -46.69270000     -31.75640000     -70.41400000
H      -48.37430000     -32.23650000     -70.21230000
C      -42.90380000     -34.79300000     -72.11270000
H      -42.37300000     -35.59530000     -71.60930000
H      -43.40850000     -35.13310000     -73.00100000
C      -43.85730000     -34.05270000     -71.29760000
H      -43.34780000     -33.34120000     -70.63930000
H      -44.46570000     -33.39620000     -71.94830000
C      -47.33860000     -33.19910000     -71.74200000
H      -46.37290000     -33.11830000     -72.22820000
H      -48.08140000     -33.41450000     -72.45750000
C      -47.34790000     -34.55650000     -70.93910000
C      -48.48150000     -35.20270000     -70.53800000
C      -46.17050000     -35.13050000     -70.34810000
H      -49.42370000     -34.79780000     -70.77390000
C      -46.53490000     -36.20870000     -69.54510000
C      -44.72910000     -35.05490000     -70.47650000
C      -44.11270000     -36.09010000     -69.79360000
S      -48.21650000     -36.58810000     -69.53700000
S      -45.17770000     -37.12620000     -68.91540000
H      -43.00720000     -36.19020000     -69.66060000
