40
Properties=species:S:1:pos:R:3 #=T CELL(abcABC):=T 1.889726e+02=T 90.00000=T Traj:=T positionsangstrom=T Step:=T 0=T Bead:=T pbc="F F F"
C      -42.70850000     -30.30310000     -71.66960000
C      -43.15740000     -31.13400000     -72.73070000
C      -44.50210000     -31.06650000     -73.15770000
C      -45.40510000     -30.20970000     -72.50850000
C      -44.98500000     -29.43430000     -71.44420000
C      -43.59990000     -29.40920000     -71.08680000
H      -41.64280000     -30.23670000     -71.46210000
H      -44.82940000     -31.73890000     -73.89480000
H      -45.59040000     -28.64560000     -70.98630000
H      -43.28970000     -28.75810000     -70.38750000
C      -46.76640000     -29.97930000     -73.09950000
H      -46.83450000     -30.40830000     -74.07810000
H      -46.85750000     -28.90110000     -73.25930000
C      -42.21800000     -32.04330000     -73.57460000
H      -42.72370000     -32.40170000     -74.46710000
H      -41.40460000     -31.56470000     -73.96500000
S      -48.16590000     -30.58190000     -71.99690000
S      -41.47490000     -33.43130000     -72.50770000
C      -47.46800000     -32.10000000     -71.13500000
H      -46.54460000     -31.82970000     -70.52170000
H      -48.26980000     -32.25750000     -70.37630000
C      -42.79980000     -34.60550000     -72.28350000
H      -42.44240000     -35.61310000     -71.98170000
H      -43.19960000     -34.80020000     -73.29230000
C      -43.85100000     -34.14200000     -71.22950000
H      -43.27140000     -33.54790000     -70.47850000
H      -44.51610000     -33.35590000     -71.71160000
C      -47.26840000     -33.36850000     -71.93130000
H      -46.46260000     -33.29000000     -72.66370000
H      -48.19060000     -33.36300000     -72.57650000
C      -47.21340000     -34.61040000     -71.03390000
C      -48.38190000     -35.15730000     -70.62060000
C      -46.08580000     -35.37740000     -70.50240000
H      -49.33950000     -34.78940000     -71.01420000
C      -46.46410000     -36.38230000     -69.66000000
C      -44.66080000     -35.23100000     -70.50450000
C      -43.98780000     -36.26770000     -69.81480000
S      -48.18010000     -36.59610000     -69.55670000
S      -45.13620000     -37.27930000     -68.99110000
H      -42.86030000     -36.34140000     -69.57710000
