40
Properties=species:S:1:pos:R:3 #=T CELL(abcABC):=T 1.889726e+02=T 90.00000=T Traj:=T positionsangstrom=T Step:=T 0=T Bead:=T pbc="F F F"
C      -43.77560000     -34.28170000     -69.61320000
C      -43.00300000     -33.69170000     -70.63850000
C      -43.19500000     -32.29560000     -70.95030000
C      -44.05770000     -31.53580000     -70.15150000
C      -44.81720000     -32.16110000     -69.12510000
C      -44.67450000     -33.52010000     -68.86050000
H      -43.53490000     -35.35490000     -69.36640000
H      -42.71740000     -31.88470000     -71.78720000
H      -45.43790000     -31.51140000     -68.44380000
H      -45.36640000     -33.97830000     -68.13920000
C      -44.29450000     -30.13250000     -70.48040000
H      -43.40020000     -29.51520000     -70.42070000
H      -45.03400000     -29.53140000     -69.86840000
C      -41.98720000     -34.53340000     -71.39740000
H      -41.10920000     -34.07130000     -71.62960000
H      -41.79900000     -35.34410000     -70.76890000
S      -44.90420000     -29.80490000     -72.23300000
S      -42.69670000     -35.31830000     -72.96850000
C      -46.65740000     -30.29280000     -72.33750000
H      -47.02840000     -30.04260000     -71.38260000
H      -47.06410000     -29.52240000     -72.91400000
C      -43.77670000     -33.99710000     -73.78790000
H      -43.47870000     -33.79220000     -74.87230000
H      -43.66310000     -33.06970000     -73.20060000
C      -45.25430000     -34.58650000     -73.85920000
H      -45.91180000     -33.97930000     -74.54420000
H      -45.19350000     -35.61550000     -74.20750000
C      -47.00930000     -31.71420000     -72.81350000
H      -46.36950000     -32.15820000     -73.57700000
H      -47.97070000     -31.61970000     -73.43750000
C      -47.33010000     -32.67370000     -71.69790000
C      -48.05590000     -32.40660000     -70.59210000
C      -46.75040000     -33.96090000     -71.63880000
H      -48.53230000     -31.46660000     -70.28730000
C      -47.10490000     -34.66460000     -70.47680000
C      -45.98610000     -34.85360000     -72.58860000
C      -45.75800000     -36.09850000     -72.06350000
S      -48.22160000     -33.74340000     -69.50270000
S      -46.38470000     -36.32210000     -70.35840000
H      -45.10680000     -36.87650000     -72.45850000
