40
Properties=species:S:1:pos:R:3 #=T CELL(abcABC):=T 1.889726e+02=T 90.00000=T Traj:=T positionsangstrom=T Step:=T 0=T Bead:=T pbc="F F F"
C      -42.52680000     -30.73350000     -72.03580000
C      -43.11760000     -31.45160000     -73.04110000
C      -44.50010000     -31.25950000     -73.27460000
C      -45.25890000     -30.30430000     -72.59700000
C      -44.69510000     -29.70810000     -71.42990000
C      -43.35620000     -29.96810000     -71.15990000
H      -41.45370000     -30.84860000     -71.91360000
H      -44.98860000     -31.82060000     -74.08610000
H      -45.19330000     -29.02170000     -70.76760000
H      -42.88200000     -29.54640000     -70.26220000
C      -46.68400000     -30.12480000     -73.09920000
H      -46.75140000     -30.81720000     -73.91310000
H      -46.86010000     -29.11060000     -73.43640000
C      -42.41490000     -32.50120000     -73.85350000
H      -43.04580000     -32.99410000     -74.52010000
H      -41.67180000     -31.97840000     -74.44910000
S      -47.86480000     -30.36960000     -71.71390000
S      -41.55480000     -33.72820000     -72.82330000
C      -47.28120000     -31.89580000     -70.87800000
H      -46.14900000     -31.78120000     -70.70630000
H      -47.75760000     -31.91590000     -69.88210000
C      -43.00760000     -34.60190000     -72.13090000
H      -42.49450000     -35.30770000     -71.49780000
H      -43.50240000     -35.22290000     -72.93250000
C      -43.99700000     -33.91610000     -71.20490000
H      -43.38640000     -33.27220000     -70.53660000
H      -44.69060000     -33.28840000     -71.76770000
C      -47.43890000     -33.17270000     -71.72530000
H      -46.62130000     -33.04860000     -72.51610000
H      -48.46470000     -33.05860000     -72.19130000
C      -47.34110000     -34.45050000     -70.95130000
C      -48.49460000     -34.97890000     -70.49460000
C      -46.18150000     -35.15070000     -70.44220000
H      -49.45290000     -34.54470000     -70.66800000
C      -46.55550000     -36.33440000     -69.75820000
C      -44.76440000     -34.89460000     -70.34080000
C      -44.12030000     -35.87850000     -69.66140000
S      -48.25710000     -36.44100000     -69.52820000
S      -45.19440000     -37.11350000     -68.99100000
H      -43.10640000     -35.78230000     -69.42660000
