40
Properties=species:S:1:pos:R:3 #=T CELL(abcABC):=T 1.889726e+02=T 90.00000=T Traj:=T positionsangstrom=T Step:=T 0=T Bead:=T pbc="F F F"
C      -43.47660000     -34.42150000     -69.79200000
C      -42.97730000     -33.69280000     -70.89770000
C      -43.37550000     -32.36850000     -71.06220000
C      -44.24630000     -31.75600000     -70.12250000
C      -44.71730000     -32.49790000     -69.04790000
C      -44.25800000     -33.74030000     -68.78650000
H      -43.18240000     -35.41020000     -69.68340000
H      -42.96940000     -31.87480000     -71.89420000
H      -45.31530000     -31.92960000     -68.29500000
H      -44.63420000     -34.25300000     -67.95150000
C      -44.49420000     -30.28120000     -70.21610000
H      -43.58910000     -29.77990000     -69.77240000
H      -45.41220000     -29.99500000     -69.64540000
C      -42.05000000     -34.43530000     -71.78340000
H      -41.12070000     -33.88980000     -71.99910000
H      -41.67830000     -35.34800000     -71.31870000
S      -44.89860000     -29.78740000     -71.97400000
S      -42.78370000     -35.17100000     -73.32290000
C      -46.73380000     -30.13720000     -72.15780000
H      -47.30270000     -30.03160000     -71.23690000
H      -47.05980000     -29.44120000     -72.92680000
C      -43.95870000     -33.98380000     -73.98040000
H      -43.74230000     -33.62320000     -75.01760000
H      -43.83420000     -33.06730000     -73.32550000
C      -45.43310000     -34.52380000     -73.85640000
H      -46.07800000     -33.67040000     -74.24650000
H      -45.44900000     -35.36510000     -74.42730000
C      -46.99350000     -31.58870000     -72.71720000
H      -46.27890000     -31.84510000     -73.53690000
H      -48.03730000     -31.55090000     -73.19870000
C      -47.12570000     -32.62460000     -71.63030000
C      -47.93520000     -32.35120000     -70.52190000
C      -46.64070000     -33.94180000     -71.57520000
H      -48.52530000     -31.49540000     -70.39990000
C      -47.02940000     -34.66530000     -70.43440000
C      -45.92240000     -34.82340000     -72.45540000
C      -45.65730000     -36.08160000     -71.91870000
S      -48.14760000     -33.77150000     -69.44470000
S      -46.52850000     -36.26150000     -70.36300000
H      -45.21040000     -36.91710000     -72.48130000
