40
Properties=species:S:1:pos:R:3 #=T CELL(abcABC):=T 1.889726e+02=T 90.00000=T Traj:=T positionsangstrom=T Step:=T 0=T Bead:=T pbc="F F F"
C      -43.21840000     -29.73790000     -70.90810000
C      -43.51450000     -30.48490000     -72.07290000
C      -44.81200000     -30.43020000     -72.65230000
C      -45.79850000     -29.76600000     -71.98220000
C      -45.57570000     -29.13650000     -70.74930000
C      -44.24780000     -29.06260000     -70.27890000
H      -42.21580000     -29.67230000     -70.46270000
H      -45.05930000     -30.96510000     -73.58250000
H      -46.30190000     -28.73440000     -70.06050000
H      -43.98560000     -28.54210000     -69.33150000
C      -47.26860000     -29.77330000     -72.51970000
H      -47.20510000     -29.80580000     -73.57680000
H      -47.80990000     -28.80850000     -72.25490000
C      -42.49400000     -31.35630000     -72.80400000
H      -42.99830000     -31.95820000     -73.65230000
H      -41.77780000     -30.71780000     -73.27740000
S      -48.38020000     -31.17630000     -71.81370000
S      -41.46830000     -32.54990000     -71.79060000
C      -47.17970000     -32.54250000     -71.27970000
H      -46.35650000     -31.98350000     -70.88720000
H      -47.66350000     -33.07470000     -70.42030000
C      -42.53020000     -34.02470000     -71.44450000
H      -41.70620000     -34.66740000     -70.99860000
H      -42.73220000     -34.41070000     -72.39700000
C      -43.75290000     -33.96230000     -70.51160000
H      -43.44750000     -33.62960000     -69.51780000
H      -44.50430000     -33.29140000     -70.82810000
C      -46.68120000     -33.56160000     -72.40490000
H      -45.59830000     -33.39680000     -72.71940000
H      -47.23930000     -33.46170000     -73.35470000
C      -46.77550000     -35.00740000     -71.90850000
C      -47.75100000     -35.87760000     -72.25040000
C      -45.79820000     -35.59180000     -70.92980000
H      -48.55640000     -35.64250000     -72.91730000
C      -46.27840000     -36.79080000     -70.42530000
C      -44.51700000     -35.25510000     -70.39500000
C      -44.05390000     -36.25870000     -69.55530000
S      -47.68940000     -37.38010000     -71.30300000
S      -45.14880000     -37.69600000     -69.46850000
H      -43.08110000     -36.24170000     -69.08220000
