40
Properties=species:S:1:pos:R:3 #=T CELL(abcABC):=T 1.889726e+02=T 90.00000=T Traj:=T positionsangstrom=T Step:=T 0=T Bead:=T pbc="F F F"
C      -44.41520000     -30.07540000     -69.22060000
C      -43.63260000     -30.31840000     -70.42300000
C      -44.29760000     -30.40320000     -71.64750000
C      -45.67750000     -30.17100000     -71.75770000
C      -46.40500000     -29.97180000     -70.53720000
C      -45.77880000     -29.86500000     -69.27640000
H      -44.04360000     -29.95550000     -68.22250000
H      -43.73320000     -30.57110000     -72.56730000
H      -47.50130000     -29.79720000     -70.55220000
H      -46.39610000     -29.50790000     -68.45000000
C      -46.34850000     -30.26070000     -73.07020000
H      -45.76480000     -30.81280000     -73.86980000
H      -46.48700000     -29.25450000     -73.49150000
C      -42.13610000     -30.58890000     -70.44530000
H      -41.74280000     -30.60470000     -71.42780000
H      -41.59830000     -29.94740000     -69.70170000
S      -48.02300000     -30.98040000     -72.90840000
S      -41.74210000     -32.35780000     -69.86550000
C      -47.72400000     -32.62680000     -72.11440000
H      -47.29300000     -32.44650000     -71.10750000
H      -48.68970000     -33.12060000     -71.95920000
C      -42.82970000     -33.40900000     -70.89440000
H      -42.20780000     -34.29360000     -71.08340000
H      -42.85580000     -32.81790000     -71.78240000
C      -44.17910000     -33.77650000     -70.27310000
H      -44.09120000     -33.73340000     -69.21180000
H      -44.96050000     -32.94170000     -70.37930000
C      -46.69760000     -33.41380000     -72.92840000
H      -45.74790000     -32.92210000     -72.89360000
H      -47.03780000     -33.29200000     -73.99500000
C      -46.61600000     -34.88680000     -72.54600000
C      -47.39810000     -35.83770000     -73.18970000
C      -45.64300000     -35.56540000     -71.60160000
H      -48.11140000     -35.57910000     -73.91150000
C      -45.84920000     -36.93090000     -71.54060000
C      -44.70360000     -35.12760000     -70.58300000
C      -44.34780000     -36.14250000     -69.74400000
S      -46.96570000     -37.50580000     -72.74380000
S      -44.92690000     -37.72210000     -70.26990000
H      -43.73700000     -35.96460000     -68.87300000
