40
Properties=species:S:1:pos:R:3 #=T CELL(abcABC):=T 1.889726e+02=T 90.00000=T Traj:=T positionsangstrom=T Step:=T 0=T Bead:=T pbc="F F F"
C      -42.82790000     -34.53340000     -70.74310000
C      -42.87750000     -33.59880000     -71.77350000
C      -43.26640000     -32.28920000     -71.50670000
C      -43.65300000     -31.83930000     -70.23940000
C      -43.54960000     -32.78690000     -69.21260000
C      -43.04840000     -34.10250000     -69.41840000
H      -42.54070000     -35.55060000     -70.89960000
H      -43.43690000     -31.57620000     -72.37200000
H      -43.80020000     -32.53120000     -68.14940000
H      -42.93030000     -34.81350000     -68.59750000
C      -44.13250000     -30.45450000     -69.77050000
H      -43.26870000     -29.87060000     -69.50890000
H      -44.72180000     -30.57060000     -68.91200000
C      -42.55610000     -33.94070000     -73.21620000
H      -42.33550000     -33.13230000     -73.99800000
H      -41.72190000     -34.74370000     -73.22750000
S      -45.09090000     -29.46550000     -71.00720000
S      -44.00210000     -34.78390000     -74.04920000
C      -46.77070000     -30.12860000     -70.89090000
H      -47.03730000     -30.17370000     -69.73070000
H      -47.44090000     -29.45600000     -71.36820000
C      -45.14870000     -33.30030000     -74.13740000
H      -44.96900000     -32.86780000     -75.09680000
H      -45.03490000     -32.57310000     -73.36040000
C      -46.63580000     -33.83010000     -74.03300000
H      -47.32430000     -32.95930000     -74.12720000
H      -46.83890000     -34.44320000     -74.89050000
C      -47.04570000     -31.48270000     -71.54750000
H      -46.35230000     -31.45520000     -72.37710000
H      -47.97870000     -31.58540000     -72.09730000
C      -46.91170000     -32.75140000     -70.80880000
C      -47.05150000     -32.78760000     -69.42950000
C      -46.63560000     -33.99850000     -71.37880000
H      -47.37060000     -31.89940000     -68.85650000
C      -46.59170000     -35.00600000     -70.36000000
C      -46.73520000     -34.56010000     -72.72610000
C      -46.67470000     -35.93430000     -72.65880000
S      -46.94380000     -34.40030000     -68.72500000
S      -46.59010000     -36.64660000     -70.99780000
H      -46.64640000     -36.61880000     -73.47160000
