40
Properties=species:S:1:pos:R:3 #=T CELL(abcABC):=T 1.889726e+02=T 90.00000=T Traj:=T positionsangstrom=T Step:=T 0=T Bead:=T pbc="F F F"
C      -44.26660000     -30.20770000     -69.20290000
C      -43.61270000     -30.32200000     -70.39440000
C      -44.33630000     -30.30060000     -71.58200000
C      -45.75580000     -30.04560000     -71.53850000
C      -46.37400000     -29.96740000     -70.31440000
C      -45.63930000     -30.12960000     -69.15840000
H      -43.73990000     -30.18960000     -68.26430000
H      -43.98130000     -30.54550000     -72.63470000
H      -47.46790000     -29.87740000     -70.23520000
H      -46.14300000     -30.22020000     -68.21610000
C      -46.53440000     -30.01240000     -72.86320000
H      -45.84300000     -30.24600000     -73.67120000
H      -46.88960000     -28.99290000     -73.12130000
C      -42.14550000     -30.55400000     -70.27440000
H      -41.60650000     -30.40940000     -71.19040000
H      -41.66730000     -29.77420000     -69.67460000
S      -48.07850000     -31.06790000     -72.93590000
S      -41.79920000     -32.38280000     -69.81700000
C      -47.66770000     -32.68650000     -72.20520000
H      -47.47460000     -32.60240000     -71.11480000
H      -48.51270000     -33.27650000     -72.32990000
C      -42.95180000     -33.27320000     -70.97580000
H      -42.54550000     -34.19840000     -71.33970000
H      -43.18500000     -32.64770000     -71.89280000
C      -44.37850000     -33.66710000     -70.37790000
H      -44.27570000     -33.54930000     -69.30700000
H      -45.19620000     -32.96560000     -70.75520000
C      -46.54110000     -33.38240000     -72.98700000
H      -45.61160000     -32.95470000     -72.75540000
H      -46.69630000     -33.30270000     -74.09210000
C      -46.49860000     -34.90720000     -72.57550000
C      -47.20900000     -35.82820000     -73.36880000
C      -45.71930000     -35.52460000     -71.58650000
H      -47.97300000     -35.67680000     -74.08610000
C      -45.83320000     -36.89840000     -71.59920000
C      -44.70980000     -35.10580000     -70.59680000
C      -44.24790000     -36.17560000     -69.86590000
S      -46.99810000     -37.48060000     -72.77680000
S      -44.86540000     -37.78110000     -70.37490000
H      -43.60850000     -36.04760000     -68.96660000
