40
Properties=species:S:1:pos:R:3 #=T CELL(abcABC):=T 1.889726e+02=T 90.00000=T Traj:=T positionsangstrom=T Step:=T 0=T Bead:=T pbc="F F F"
C      -42.82440000     -34.54270000     -70.41420000
C      -42.97010000     -33.67320000     -71.57000000
C      -43.41500000     -32.33890000     -71.32450000
C      -43.91170000     -31.94080000     -70.06760000
C      -43.80720000     -32.81300000     -68.99880000
C      -43.26150000     -34.09290000     -69.16210000
H      -42.31490000     -35.46910000     -70.46980000
H      -43.70490000     -31.70120000     -72.21520000
H      -44.21230000     -32.50340000     -68.00030000
H      -43.10370000     -34.82670000     -68.35280000
C      -44.58340000     -30.65340000     -69.73840000
H      -43.95690000     -29.92300000     -69.18890000
H      -45.36830000     -30.86640000     -68.99300000
C      -42.34540000     -34.05130000     -72.86350000
H      -41.96970000     -33.20700000     -73.33340000
H      -41.64180000     -34.82210000     -72.73300000
S      -45.07410000     -29.70690000     -71.22850000
S      -43.55810000     -34.77170000     -74.02990000
C      -46.86510000     -30.14750000     -71.46860000
H      -47.49310000     -30.03100000     -70.55620000
H      -47.28080000     -29.42200000     -72.11580000
C      -44.83370000     -33.41170000     -74.19620000
H      -44.71740000     -32.74620000     -75.07310000
H      -44.69220000     -32.72660000     -73.32060000
C      -46.23790000     -34.09980000     -74.04530000
H      -47.08720000     -33.41270000     -74.22800000
H      -46.32080000     -34.80640000     -74.85040000
C      -47.11360000     -31.53270000     -72.12990000
H      -46.40360000     -31.67690000     -72.94520000
H      -48.14840000     -31.67330000     -72.50770000
C      -46.89900000     -32.58470000     -71.06360000
C      -47.34130000     -32.50190000     -69.76900000
C      -46.62910000     -33.97680000     -71.39400000
H      -47.38780000     -31.58260000     -69.24340000
C      -46.80430000     -34.83980000     -70.33070000
C      -46.44310000     -34.68610000     -72.61950000
C      -46.32560000     -36.05360000     -72.39400000
S      -47.26920000     -34.04860000     -68.90270000
S      -46.53290000     -36.49420000     -70.72550000
H      -46.13020000     -36.82460000     -73.08720000
