40
Properties=species:S:1:pos:R:3 #=T CELL(abcABC):=T 1.889726e+02=T 90.00000=T Traj:=T positionsangstrom=T Step:=T 0=T Bead:=T pbc="F F F"
C      -44.07970000     -29.97590000     -69.42860000
C      -43.56130000     -30.42360000     -70.65420000
C      -44.41680000     -30.49520000     -71.75280000
C      -45.78200000     -30.13420000     -71.64600000
C      -46.29180000     -29.65260000     -70.43870000
C      -45.38120000     -29.56320000     -69.33710000
H      -43.51710000     -29.89040000     -68.49220000
H      -44.21040000     -30.98640000     -72.71280000
H      -47.29860000     -29.34910000     -70.23310000
H      -45.79190000     -29.26080000     -68.39660000
C      -46.60050000     -30.17140000     -72.88510000
H      -45.93130000     -30.42020000     -73.74410000
H      -46.92590000     -29.16150000     -73.24090000
C      -42.13930000     -30.86600000     -70.87590000
H      -42.04340000     -30.93080000     -71.96330000
H      -41.37900000     -30.17650000     -70.57230000
S      -48.05670000     -31.16400000     -72.90450000
S      -41.70630000     -32.42320000     -69.97650000
C      -47.62630000     -32.82130000     -72.26370000
H      -47.30910000     -32.72830000     -71.17430000
H      -48.51730000     -33.40520000     -72.33900000
C      -42.72330000     -33.54780000     -71.03090000
H      -42.23680000     -34.48340000     -70.87720000
H      -42.67820000     -33.24830000     -72.04000000
C      -44.15610000     -33.69600000     -70.46860000
H      -44.11670000     -33.46780000     -69.37270000
H      -44.75180000     -33.08450000     -71.00920000
C      -46.54830000     -33.51820000     -73.08870000
H      -45.56520000     -33.06880000     -72.99790000
H      -46.82240000     -33.52090000     -74.09350000
C      -46.51240000     -34.93750000     -72.62240000
C      -47.42730000     -35.86870000     -73.04230000
C      -45.64240000     -35.47390000     -71.55020000
H      -48.26650000     -35.68220000     -73.75720000
C      -45.89040000     -36.84120000     -71.37120000
C      -44.74530000     -35.05710000     -70.53440000
C      -44.34760000     -36.04660000     -69.67450000
S      -47.17610000     -37.46990000     -72.40390000
S      -45.05170000     -37.57900000     -70.10180000
H      -43.66180000     -35.82600000     -68.82890000
