40
Properties=species:S:1:pos:R:3 #=T CELL(abcABC):=T 1.889726e+02=T 90.00000=T Traj:=T positionsangstrom=T Step:=T 0=T Bead:=T pbc="F F F"
C      -44.58410000     -30.42110000     -68.91140000
C      -44.00370000     -30.26340000     -70.17940000
C      -44.88030000     -30.07290000     -71.23370000
C      -46.26830000     -29.90570000     -71.10890000
C      -46.79580000     -30.08650000     -69.83640000
C      -45.96400000     -30.24210000     -68.74730000
H      -44.05500000     -30.67930000     -68.02260000
H      -44.46230000     -29.92940000     -72.25790000
H      -47.86370000     -29.88000000     -69.64050000
H      -46.41760000     -30.45300000     -67.81330000
C      -47.05080000     -29.83340000     -72.40290000
H      -46.27300000     -29.61230000     -73.24750000
H      -47.68860000     -28.89890000     -72.44250000
C      -42.53650000     -30.50330000     -70.33420000
H      -42.25390000     -30.22660000     -71.36370000
H      -42.01440000     -29.87340000     -69.62800000
S      -48.22510000     -31.22810000     -72.62840000
S      -41.77660000     -32.21480000     -69.85250000
C      -47.27700000     -32.62570000     -71.92490000
H      -46.66370000     -32.22260000     -70.99300000
H      -48.01760000     -33.35780000     -71.52610000
C      -42.76950000     -33.47730000     -70.87630000
H      -42.08750000     -34.27750000     -70.96560000
H      -42.95060000     -33.05580000     -71.84940000
C      -44.12250000     -33.87380000     -70.27570000
H      -43.95580000     -33.91060000     -69.22040000
H      -44.72540000     -32.97010000     -70.42860000
C      -46.28380000     -33.28180000     -72.92930000
H      -45.30200000     -32.84420000     -72.87670000
H      -46.58650000     -32.95070000     -74.00260000
C      -46.18840000     -34.83280000     -72.85780000
C      -46.78510000     -35.69240000     -73.78820000
C      -45.45950000     -35.55530000     -71.84670000
H      -47.29050000     -35.47340000     -74.72840000
C      -45.64060000     -36.94270000     -71.93800000
C      -44.60910000     -35.22250000     -70.74330000
C      -44.21200000     -36.32580000     -70.03190000
S      -46.48530000     -37.45190000     -73.42620000
S      -44.87440000     -37.77270000     -70.67450000
H      -43.86060000     -36.25900000     -68.98730000
