40
Properties=species:S:1:pos:R:3 #=T CELL(abcABC):=T 1.889726e+02=T 90.00000=T Traj:=T positionsangstrom=T Step:=T 0=T Bead:=T pbc="F F F"
C      -44.67580000     -30.35270000     -68.67120000
C      -44.06760000     -30.39650000     -69.90900000
C      -45.02320000     -30.35350000     -70.99270000
C      -46.40670000     -30.16300000     -70.79310000
C      -46.88360000     -29.97130000     -69.50200000
C      -46.00760000     -30.11970000     -68.45630000
H      -43.99530000     -30.38890000     -67.83200000
H      -44.61550000     -30.25670000     -71.99100000
H      -47.92430000     -29.86800000     -69.33460000
H      -46.35220000     -29.90040000     -67.45790000
C      -47.32200000     -30.03010000     -71.92490000
H      -46.68970000     -29.97790000     -72.84990000
H      -48.04370000     -29.21870000     -71.66860000
C      -42.60360000     -30.52480000     -70.26000000
H      -42.59390000     -30.44120000     -71.34780000
H      -41.93760000     -29.68320000     -69.98560000
S      -48.47320000     -31.49830000     -72.35720000
S      -41.87890000     -32.15060000     -69.78520000
C      -47.49190000     -33.04590000     -72.02190000
H      -47.29140000     -33.29420000     -70.98240000
H      -48.19280000     -33.84890000     -72.42560000
C      -42.89750000     -33.22680000     -70.90740000
H      -42.35920000     -34.00460000     -71.37070000
H      -43.24420000     -32.61600000     -71.70160000
C      -44.16060000     -33.88760000     -70.15810000
H      -43.84130000     -33.96350000     -69.10610000
H      -44.93030000     -33.18700000     -70.22450000
C      -46.17470000     -33.14700000     -72.84210000
H      -45.32960000     -32.65440000     -72.30660000
H      -46.32760000     -32.75910000     -73.78740000
C      -45.90930000     -34.67380000     -73.01770000
C      -46.40750000     -35.45050000     -74.12070000
C      -45.23240000     -35.51880000     -72.04400000
H      -46.93140000     -35.12790000     -75.03100000
C      -45.28200000     -36.86470000     -72.39250000
C      -44.58020000     -35.22610000     -70.77180000
C      -44.28780000     -36.39700000     -70.09390000
S      -46.28800000     -37.14900000     -73.85680000
S      -44.67380000     -37.76960000     -71.03020000
H      -43.58110000     -36.58750000     -69.29470000
