40
Properties=species:S:1:pos:R:3 #=T CELL(abcABC):=T 1.889726e+02=T 90.00000=T Traj:=T positionsangstrom=T Step:=T 0=T Bead:=T pbc="F F F"
C      -44.90740000     -30.09900000     -68.59530000
C      -44.41990000     -30.17840000     -69.93880000
C      -45.36030000     -30.36230000     -70.97110000
C      -46.78050000     -30.36940000     -70.69730000
C      -47.20060000     -30.29930000     -69.31040000
C      -46.26780000     -30.08960000     -68.28400000
H      -44.19090000     -29.82050000     -67.78790000
H      -45.11270000     -30.36140000     -72.04650000
H      -48.25080000     -30.51010000     -69.08360000
H      -46.57990000     -30.17200000     -67.26040000
C      -47.81240000     -30.40870000     -71.75880000
H      -47.35940000     -30.22610000     -72.73610000
H      -48.63050000     -29.66730000     -71.76090000
C      -42.94170000     -30.36710000     -70.19010000
H      -42.73600000     -30.27950000     -71.24050000
H      -42.38160000     -29.64890000     -69.61330000
S      -48.80350000     -31.98280000     -71.69230000
S      -42.38950000     -31.95800000     -69.41410000
C      -47.49550000     -33.25590000     -71.69680000
H      -47.04950000     -33.33240000     -70.73220000
H      -48.01910000     -34.18520000     -71.75320000
C      -43.07610000     -33.31930000     -70.44660000
H      -42.29920000     -34.05170000     -70.64980000
H      -43.27020000     -32.85130000     -71.44950000
C      -44.28440000     -34.21810000     -69.91730000
H      -44.05520000     -34.60670000     -68.90850000
H      -45.20050000     -33.58060000     -69.78790000
C      -46.41190000     -33.15350000     -72.78890000
H      -45.49520000     -32.55340000     -72.47690000
H      -46.71770000     -32.60170000     -73.69640000
C      -45.80400000     -34.50060000     -73.11820000
C      -45.93150000     -35.01090000     -74.38920000
C      -45.06130000     -35.37840000     -72.16140000
H      -46.17890000     -34.41370000     -75.24770000
C      -44.88160000     -36.58590000     -72.79420000
C      -44.47980000     -35.36940000     -70.82410000
C      -43.95680000     -36.57230000     -70.47100000
S      -45.39950000     -36.67380000     -74.43800000
S      -44.01190000     -37.82270000     -71.77440000
H      -43.45390000     -36.81450000     -69.52880000
