40
Properties=species:S:1:pos:R:3 #=T CELL(abcABC):=T 1.889726e+02=T 90.00000=T Traj:=T positionsangstrom=T Step:=T 0=T Bead:=T pbc="F F F"
C      -44.78190000     -30.34130000     -68.58560000
C      -44.29440000     -30.37850000     -69.89700000
C      -45.23950000     -30.28440000     -70.99390000
C      -46.60710000     -30.09290000     -70.74810000
C      -47.06270000     -30.02730000     -69.41350000
C      -46.14130000     -30.15230000     -68.33320000
H      -44.08070000     -30.38540000     -67.72920000
H      -44.82950000     -30.25600000     -71.96770000
H      -48.11740000     -30.03680000     -69.13970000
H      -46.49610000     -30.09070000     -67.29140000
C      -47.60870000     -30.14630000     -71.86370000
H      -47.07410000     -30.17180000     -72.78940000
H      -48.18940000     -29.27540000     -71.71370000
C      -42.79280000     -30.43640000     -70.13920000
H      -42.46640000     -30.24360000     -71.14760000
H      -42.26480000     -29.67330000     -69.54770000
S      -48.61850000     -31.71720000     -71.93590000
S      -41.95960000     -32.00640000     -69.73090000
C      -47.44160000     -33.12440000     -71.75740000
H      -47.05760000     -33.13590000     -70.75500000
H      -48.14220000     -33.93210000     -71.84150000
C      -42.92240000     -33.30520000     -70.69310000
H      -42.08570000     -34.09520000     -70.78990000
H      -43.16240000     -32.79250000     -71.67900000
C      -44.15640000     -34.02000000     -70.11730000
H      -43.88690000     -34.25780000     -69.07380000
H      -44.99750000     -33.28580000     -70.14510000
C      -46.28850000     -33.13810000     -72.77490000
H      -45.46380000     -32.65240000     -72.27680000
H      -46.59960000     -32.71370000     -73.75080000
C      -45.83070000     -34.54550000     -73.07650000
C      -46.16140000     -35.23080000     -74.25100000
C      -45.22490000     -35.42830000     -72.12050000
H      -46.75830000     -34.86320000     -75.06210000
C      -45.19010000     -36.79310000     -72.55200000
C      -44.51370000     -35.27100000     -70.85690000
C      -44.20380000     -36.55410000     -70.33210000
S      -45.83840000     -36.95600000     -74.15760000
S      -44.46410000     -37.89040000     -71.42750000
H      -43.81100000     -36.79200000     -69.37180000
