40
Properties=species:S:1:pos:R:3 #=T CELL(abcABC):=T 1.889726e+02=T 90.00000=T Traj:=T positionsangstrom=T Step:=T 0=T Bead:=T pbc="F F F"
C      -44.80890000     -30.30130000     -68.62120000
C      -44.41710000     -30.37170000     -69.93910000
C      -45.32280000     -30.14590000     -70.98230000
C      -46.69060000     -30.13500000     -70.71060000
C      -47.14110000     -30.11210000     -69.35710000
C      -46.17510000     -30.28280000     -68.36970000
H      -44.09630000     -30.66370000     -67.80660000
H      -44.93010000     -30.16120000     -71.95950000
H      -48.19930000     -29.87540000     -69.15580000
H      -46.47720000     -30.11230000     -67.30700000
C      -47.65950000     -30.25420000     -71.84380000
H      -47.19460000     -30.26590000     -72.89060000
H      -48.41510000     -29.43160000     -71.89810000
C      -42.95360000     -30.56970000     -70.31250000
H      -42.83620000     -30.66840000     -71.41760000
H      -42.27180000     -29.74250000     -70.01450000
S      -48.60330000     -31.87010000     -71.62400000
S      -42.35160000     -32.13730000     -69.56470000
C      -47.42770000     -33.28560000     -71.80550000
H      -47.00380000     -33.62960000     -70.81590000
H      -47.98460000     -34.08160000     -72.28900000
C      -43.09460000     -33.31660000     -70.73920000
H      -42.40740000     -34.05350000     -71.04970000
H      -43.43860000     -32.85390000     -71.64780000
C      -44.32770000     -33.97880000     -70.09450000
H      -44.21890000     -34.17440000     -69.06310000
H      -45.30860000     -33.44140000     -70.13040000
C      -46.20740000     -33.08800000     -72.73970000
H      -45.42890000     -32.53380000     -72.28430000
H      -46.52350000     -32.40130000     -73.54440000
C      -45.75620000     -34.46860000     -73.07160000
C      -46.15820000     -35.10420000     -74.25950000
C      -44.97350000     -35.36820000     -72.21380000
H      -46.72810000     -34.70890000     -75.05440000
C      -44.88060000     -36.67690000     -72.74270000
C      -44.49860000     -35.24930000     -70.85050000
C      -44.12470000     -36.49480000     -70.34190000
S      -45.60010000     -36.77000000     -74.26620000
S      -44.21620000     -37.79100000     -71.56120000
H      -43.64130000     -36.69580000     -69.40900000
