40
Properties=species:S:1:pos:R:3 #=T CELL(abcABC):=T 1.889726e+02=T 90.00000=T Traj:=T positionsangstrom=T Step:=T 0=T Bead:=T pbc="F F F"
C      -45.10070000     -30.02120000     -68.45880000
C      -44.57780000     -30.25400000     -69.76880000
C      -45.49870000     -30.43890000     -70.82700000
C      -46.91120000     -30.35920000     -70.56110000
C      -47.39170000     -30.10660000     -69.28970000
C      -46.42590000     -29.95170000     -68.27910000
H      -44.43930000     -29.99370000     -67.65460000
H      -45.11790000     -30.74210000     -71.82730000
H      -48.46290000     -29.99730000     -69.16670000
H      -46.90320000     -29.77490000     -67.35350000
C      -47.86750000     -30.51980000     -71.77380000
H      -47.20200000     -30.47640000     -72.63550000
H      -48.63410000     -29.76260000     -71.74900000
C      -43.12360000     -30.38790000     -70.04660000
H      -42.97220000     -30.44140000     -71.16910000
H      -42.52860000     -29.53060000     -69.66580000
S      -48.85050000     -32.08010000     -71.78230000
S      -42.41710000     -31.99220000     -69.27630000
C      -47.61800000     -33.39280000     -71.60250000
H      -47.27510000     -33.42910000     -70.53810000
H      -48.17570000     -34.35100000     -71.84150000
C      -42.97870000     -33.25670000     -70.51920000
H      -42.03980000     -33.74220000     -70.74280000
H      -43.25920000     -32.62390000     -71.37290000
C      -44.16300000     -34.11650000     -70.06960000
H      -43.88160000     -34.35600000     -68.98880000
H      -44.98990000     -33.44000000     -70.10770000
C      -46.43950000     -33.25010000     -72.59310000
H      -45.73080000     -32.67670000     -71.95640000
H      -46.68680000     -32.70260000     -73.42580000
C      -45.88540000     -34.58200000     -73.06500000
C      -46.03840000     -35.02230000     -74.33640000
C      -44.96990000     -35.46270000     -72.23210000
H      -46.74690000     -34.56040000     -75.01980000
C      -44.71440000     -36.60920000     -72.92100000
C      -44.28220000     -35.37620000     -70.93850000
C      -43.63790000     -36.55220000     -70.68290000
S      -45.21770000     -36.55880000     -74.54900000
S      -43.87170000     -37.76590000     -71.88230000
H      -43.23730000     -36.90590000     -69.72550000
