40
Properties=species:S:1:pos:R:3 #=T CELL(abcABC):=T 1.889726e+02=T 90.00000=T Traj:=T positionsangstrom=T Step:=T 0=T Bead:=T pbc="F F F"
C      -47.30400000     -34.02760000     -75.15560000
C      -47.49640000     -33.14130000     -74.09490000
C      -47.84880000     -33.60450000     -72.81330000
C      -48.17370000     -34.99920000     -72.64360000
C      -47.94390000     -35.90760000     -73.67150000
C      -47.59510000     -35.39660000     -74.92250000
H      -46.97730000     -33.78510000     -76.14350000
H      -47.88760000     -32.88080000     -72.02880000
H      -48.15390000     -37.01130000     -73.64610000
H      -47.46440000     -36.00450000     -75.72660000
C      -48.48860000     -35.66170000     -71.30370000
H      -48.70480000     -36.69020000     -71.51380000
H      -49.36010000     -35.12460000     -70.90790000
C      -47.18990000     -31.71900000     -74.35510000
H      -47.48550000     -31.49600000     -75.38950000
H      -47.77420000     -31.02640000     -73.72700000
S      -47.18310000     -35.31840000     -70.12580000
S      -45.32070000     -31.28270000     -74.27650000
C      -45.65610000     -36.19950000     -70.74920000
H      -45.27810000     -36.85770000     -69.98220000
H      -45.92630000     -36.81000000     -71.60050000
C      -44.86860000     -31.73420000     -72.53490000
H      -45.52670000     -32.49900000     -72.16730000
H      -44.92790000     -30.91090000     -71.84610000
C      -43.40930000     -32.31880000     -72.44740000
H      -43.43620000     -33.34020000     -72.79190000
H      -42.80090000     -31.68390000     -73.08330000
C      -44.53020000     -35.13450000     -70.98110000
H      -44.75610000     -34.41210000     -71.74210000
H      -43.52930000     -35.63740000     -71.27100000
C      -44.23910000     -34.20870000     -69.78550000
C      -44.58020000     -34.45120000     -68.50070000
C      -43.42490000     -32.97770000     -69.89040000
H      -45.12360000     -35.30580000     -68.09350000
C      -43.18900000     -32.39490000     -68.65400000
C      -43.03390000     -32.18770000     -71.00120000
C      -42.29530000     -31.12860000     -70.58200000
S      -43.89730000     -33.28620000     -67.34480000
S      -42.31440000     -30.92870000     -68.82570000
H      -41.98840000     -30.28330000     -71.23040000
