40
Properties=species:S:1:pos:R:3 #=T CELL(abcABC):=T 1.889726e+02=T 90.00000=T Traj:=T positionsangstrom=T Step:=T 0=T Bead:=T pbc="F F F"
C      -44.62490000     -30.42650000     -68.81080000
C      -44.03350000     -30.33940000     -70.05580000
C      -44.93250000     -30.20600000     -71.14360000
C      -46.32830000     -30.05760000     -70.93430000
C      -46.76970000     -29.99350000     -69.65590000
C      -45.98020000     -30.31390000     -68.55860000
H      -43.96570000     -30.54600000     -67.95350000
H      -44.57860000     -30.26720000     -72.21450000
H      -47.83700000     -29.79690000     -69.45530000
H      -46.37400000     -30.30690000     -67.57980000
C      -47.21480000     -29.85590000     -72.13470000
H      -46.67720000     -29.55100000     -73.00490000
H      -47.93630000     -29.10360000     -72.02010000
C      -42.54060000     -30.42310000     -70.35190000
H      -42.16040000     -30.30050000     -71.39730000
H      -41.92500000     -29.81420000     -69.71770000
S      -48.28690000     -31.39250000     -72.38440000
S      -41.98240000     -32.15950000     -69.80550000
C      -47.29050000     -32.89870000     -72.20600000
H      -46.90870000     -33.05130000     -71.21510000
H      -48.06600000     -33.65710000     -72.28910000
C      -42.95490000     -33.37230000     -70.91170000
H      -42.24580000     -34.20980000     -71.15420000
H      -43.17320000     -32.91470000     -71.93670000
C      -44.27340000     -33.86950000     -70.28490000
H      -44.24060000     -33.92840000     -69.16940000
H      -45.10880000     -33.22030000     -70.51120000
C      -46.11990000     -33.23290000     -73.19130000
H      -45.29950000     -32.50300000     -72.97810000
H      -46.34420000     -33.09950000     -74.24730000
C      -45.90620000     -34.69890000     -72.97790000
C      -46.52780000     -35.53480000     -73.91130000
C      -45.36070000     -35.42990000     -71.88370000
H      -47.00880000     -35.17670000     -74.82520000
C      -45.47660000     -36.80470000     -72.11580000
C      -44.59080000     -35.25500000     -70.67610000
C      -44.17840000     -36.39780000     -70.01160000
S      -46.44730000     -37.29170000     -73.48760000
S      -44.73170000     -37.81010000     -70.93870000
H      -43.75570000     -36.44090000     -69.01570000
