40
Properties=species:S:1:pos:R:3 #=T CELL(abcABC):=T 1.889726e+02=T 90.00000=T Traj:=T positionsangstrom=T Step:=T 0=T Bead:=T pbc="F F F"
C      -45.37600000     -30.00390000     -68.27780000
C      -44.75820000     -30.26960000     -69.52200000
C      -45.59580000     -30.41270000     -70.67770000
C      -47.00330000     -30.34500000     -70.51700000
C      -47.57330000     -29.94190000     -69.27610000
C      -46.76120000     -29.86450000     -68.15520000
H      -44.81670000     -29.97140000     -67.41220000
H      -45.26920000     -30.55410000     -71.71220000
H      -48.63130000     -29.81390000     -69.14880000
H      -47.28900000     -29.52490000     -67.21830000
C      -47.86340000     -30.52110000     -71.71020000
H      -47.32360000     -30.41340000     -72.69020000
H      -48.67870000     -29.76000000     -71.75420000
C      -43.24730000     -30.43070000     -69.65290000
H      -42.87620000     -30.12380000     -70.60800000
H      -42.85520000     -29.81260000     -68.89490000
S      -48.77870000     -32.08220000     -71.68210000
S      -42.52290000     -32.11220000     -69.26420000
C      -47.51300000     -33.47650000     -71.80810000
H      -47.15530000     -33.74050000     -70.79900000
H      -48.12750000     -34.30810000     -72.16540000
C      -42.99790000     -33.27380000     -70.64810000
H      -42.24100000     -34.05540000     -70.86740000
H      -43.25780000     -32.81400000     -71.54970000
C      -44.17230000     -34.12070000     -70.16250000
H      -44.09540000     -34.52880000     -69.13930000
H      -45.15040000     -33.63660000     -70.18100000
C      -46.33000000     -33.17750000     -72.65170000
H      -45.53550000     -32.54080000     -72.17380000
H      -46.67760000     -32.70400000     -73.57570000
C      -45.66440000     -34.51510000     -73.15460000
C      -45.90750000     -35.02180000     -74.37990000
C      -44.78040000     -35.36090000     -72.32690000
H      -46.71950000     -34.68330000     -75.05670000
C      -44.52870000     -36.51880000     -73.00960000
C      -44.22530000     -35.42840000     -71.01840000
C      -43.63770000     -36.62010000     -70.66290000
S      -45.31750000     -36.64560000     -74.56860000
S      -43.57420000     -37.68160000     -72.11480000
H      -43.08370000     -36.81180000     -69.75600000
