40
Properties=species:S:1:pos:R:3 #=T CELL(abcABC):=T 1.889726e+02=T 90.00000=T Traj:=T positionsangstrom=T Step:=T 0=T Bead:=T pbc="F F F"
C      -43.53850000     -35.00730000     -72.60670000
C      -43.39840000     -33.67380000     -72.91830000
C      -43.13860000     -32.75020000     -71.86060000
C      -43.17440000     -33.12420000     -70.50010000
C      -43.23620000     -34.49370000     -70.22120000
C      -43.41210000     -35.38280000     -71.24640000
H      -43.73600000     -35.83150000     -73.31040000
H      -43.06830000     -31.77290000     -72.27380000
H      -43.19960000     -34.65700000     -69.12240000
H      -43.46780000     -36.46490000     -71.03950000
C      -43.02640000     -32.21360000     -69.35790000
H      -41.94560000     -31.98830000     -69.24540000
H      -43.24690000     -32.69730000     -68.43370000
C      -43.61980000     -33.18880000     -74.33410000
H      -42.87600000     -32.32060000     -74.54810000
H      -43.30990000     -33.98630000     -75.07140000
S      -43.62370000     -30.46580000     -69.58290000
S      -45.26440000     -32.70130000     -74.88510000
C      -45.47380000     -30.56200000     -69.00780000
H      -45.49940000     -31.09250000     -67.97260000
H      -45.76620000     -29.53010000     -68.82050000
C      -45.99310000     -31.69320000     -73.53030000
H      -46.01540000     -30.59910000     -73.83120000
H      -45.32930000     -31.69260000     -72.70840000
C      -47.33500000     -32.36350000     -73.12700000
H      -47.87330000     -31.65720000     -72.41480000
H      -47.91670000     -32.43220000     -73.99500000
C      -46.44190000     -31.33230000     -69.93140000
H      -46.32240000     -30.83960000     -70.93020000
H      -47.36660000     -30.97700000     -69.49390000
C      -46.34380000     -32.77720000     -69.82230000
C      -46.23660000     -33.47670000     -68.62750000
C      -46.78000000     -33.78500000     -70.88040000
H      -46.14900000     -33.02270000     -67.59550000
C      -46.86750000     -35.11040000     -70.48260000
C      -47.09890000     -33.58960000     -72.31980000
C      -47.27700000     -34.83490000     -72.94660000
S      -46.51410000     -35.22160000     -68.74740000
S      -47.15250000     -36.15690000     -71.81030000
H      -47.62830000     -34.89700000     -73.94610000
