40
Properties=species:S:1:pos:R:3 #=T CELL(abcABC):=T 1.889726e+02=T 90.00000=T Traj:=T positionsangstrom=T Step:=T 0=T Bead:=T pbc="F F F"
C      -46.37390000     -30.45170000     -68.12230000
C      -45.51080000     -30.44940000     -69.23380000
C      -46.08400000     -30.51640000     -70.48600000
C      -47.46240000     -30.70500000     -70.58250000
C      -48.32680000     -30.61640000     -69.49440000
C      -47.81150000     -30.48820000     -68.23260000
H      -45.97970000     -30.35560000     -67.12410000
H      -45.54670000     -30.42750000     -71.38700000
H      -49.37930000     -30.64870000     -69.59160000
H      -48.43380000     -30.49900000     -67.37400000
C      -47.99070000     -30.83720000     -71.90700000
H      -47.28370000     -30.84600000     -72.69700000
H      -48.75040000     -30.10240000     -72.11900000
C      -43.97040000     -30.27740000     -69.06100000
H      -43.43620000     -30.05650000     -69.95440000
H      -43.81470000     -29.47910000     -68.28680000
S      -48.90670000     -32.46670000     -72.20100000
S      -43.26330000     -31.86390000     -68.42480000
C      -47.60370000     -33.76150000     -71.87120000
H      -47.59190000     -33.92700000     -70.75180000
H      -47.99780000     -34.66300000     -72.30930000
C      -43.15750000     -32.89680000     -69.97550000
H      -42.08140000     -33.18610000     -70.06590000
H      -43.29420000     -32.19960000     -70.79140000
C      -44.05210000     -34.12230000     -70.12080000
H      -44.04390000     -34.87800000     -69.30600000
H      -45.17560000     -33.84640000     -70.21030000
C      -46.26840000     -33.42250000     -72.54540000
H      -45.67640000     -32.88020000     -71.83230000
H      -46.32620000     -32.74560000     -73.36520000
C      -45.50120000     -34.67320000     -73.04930000
C      -45.79920000     -35.12130000     -74.31750000
C      -44.35380000     -35.31080000     -72.48470000
H      -46.45910000     -34.77870000     -74.97630000
C      -43.81850000     -36.33960000     -73.26590000
C      -43.58750000     -35.05130000     -71.25820000
C      -42.61560000     -35.97670000     -71.08780000
S      -44.64880000     -36.42250000     -74.77740000
S      -42.38460000     -37.07250000     -72.49440000
H      -41.97520000     -35.98750000     -70.18770000
