40
Properties=species:S:1:pos:R:3 #=T CELL(abcABC):=T 1.889726e+02=T 90.00000=T Traj:=T positionsangstrom=T Step:=T 0=T Bead:=T pbc="F F F"
C      -42.87830000     -32.47530000     -73.45280000
C      -43.57970000     -31.25780000     -73.16960000
C      -43.39220000     -30.74370000     -71.80250000
C      -42.53270000     -31.39350000     -70.90230000
C      -41.89830000     -32.57310000     -71.26050000
C      -42.00610000     -33.10920000     -72.58050000
H      -42.95840000     -32.85820000     -74.43980000
H      -43.68800000     -29.80830000     -71.40150000
H      -41.17600000     -32.93680000     -70.52870000
H      -41.45230000     -33.92500000     -72.94360000
C      -42.42560000     -30.75840000     -69.48510000
H      -42.63920000     -29.66030000     -69.48310000
H      -41.39670000     -30.93450000     -69.16350000
C      -44.40500000     -30.50170000     -74.16510000
H      -44.25770000     -29.41840000     -73.98260000
H      -44.19490000     -30.67180000     -75.22290000
S      -43.69600000     -31.51760000     -68.28400000
S      -46.17200000     -30.78170000     -73.80400000
C      -44.21540000     -33.13930000     -68.90940000
H      -43.59770000     -33.42870000     -69.73460000
H      -44.08110000     -33.80780000     -68.00920000
C      -46.25860000     -32.55860000     -73.32680000
H      -45.36490000     -32.79340000     -72.77870000
H      -46.31840000     -33.24820000     -74.20990000
C      -47.48220000     -32.65650000     -72.33970000
H      -47.32970000     -32.14560000     -71.35610000
H      -48.44670000     -32.32810000     -72.77000000
C      -45.72880000     -33.22460000     -69.28760000
H      -45.83780000     -32.42290000     -69.95890000
H      -46.34290000     -32.92280000     -68.40160000
C      -46.12790000     -34.61200000     -69.75960000
C      -45.74380000     -35.65790000     -68.96910000
C      -46.95860000     -34.86200000     -70.87270000
H      -45.06190000     -35.82350000     -68.16990000
C      -47.12950000     -36.28730000     -70.92750000
C      -47.56980000     -34.17520000     -71.97880000
C      -48.12530000     -35.07300000     -72.86360000
S      -46.34890000     -37.15440000     -69.63870000
S      -48.05780000     -36.77930000     -72.37590000
H      -48.74080000     -34.87960000     -73.77400000
