40
Properties=species:S:1:pos:R:3 #=T CELL(abcABC):=T 1.889726e+02=T 90.00000=T Traj:=T positionsangstrom=T Step:=T 0=T Bead:=T pbc="F F F"
C      -42.22810000     -32.07340000     -73.48270000
C      -43.18540000     -31.16270000     -73.01820000
C      -43.33480000     -30.92620000     -71.70350000
C      -42.47880000     -31.49830000     -70.70570000
C      -41.52370000     -32.43920000     -71.24960000
C      -41.44770000     -32.79790000     -72.57650000
H      -42.18370000     -32.15850000     -74.52420000
H      -44.16890000     -30.37390000     -71.34130000
H      -40.80650000     -33.02150000     -70.65700000
H      -40.79100000     -33.68280000     -72.84890000
C      -42.49960000     -31.22890000     -69.22080000
H      -41.99930000     -30.27030000     -69.00920000
H      -41.86490000     -31.93260000     -68.69350000
C      -44.13530000     -30.50480000     -74.06470000
H      -43.92080000     -29.45870000     -74.11320000
H      -43.88970000     -30.91820000     -75.03530000
S      -44.21110000     -31.21490000     -68.44540000
S      -45.91480000     -30.72010000     -73.55540000
C      -44.61000000     -33.04960000     -68.66240000
H      -43.75230000     -33.61710000     -68.32980000
H      -45.39030000     -33.10900000     -67.91050000
C      -46.01610000     -32.57060000     -73.43580000
H      -45.06010000     -32.97250000     -73.05710000
H      -46.18900000     -33.05070000     -74.44070000
C      -47.23100000     -32.89340000     -72.58380000
H      -47.36260000     -32.29860000     -71.70670000
H      -48.08870000     -32.57490000     -73.25840000
C      -45.21000000     -33.35450000     -69.99770000
H      -44.37810000     -33.43330000     -70.78300000
H      -45.93820000     -32.58380000     -70.27970000
C      -45.91330000     -34.70580000     -70.00960000
C      -45.80560000     -35.69650000     -69.06290000
C      -46.86340000     -35.09400000     -71.08600000
H      -45.32000000     -35.59320000     -68.10480000
C      -47.37750000     -36.38170000     -70.98710000
C      -47.42970000     -34.39640000     -72.21890000
C      -48.17790000     -35.28210000     -73.01490000
S      -46.84220000     -37.10650000     -69.49370000
S      -48.51870000     -36.75660000     -72.17480000
H      -48.84420000     -34.92580000     -73.76900000
