40
Properties=species:S:1:pos:R:3 #=T CELL(abcABC):=T 1.889726e+02=T 90.00000=T Traj:=T positionsangstrom=T Step:=T 0=T Bead:=T pbc="F F F"
C      -42.39280000     -32.17430000     -73.50960000
C      -43.35650000     -31.25890000     -73.08360000
C      -43.36020000     -30.91920000     -71.72290000
C      -42.46940000     -31.45120000     -70.77950000
C      -41.55780000     -32.43430000     -71.24840000
C      -41.53540000     -32.81770000     -72.56670000
H      -42.32120000     -32.32390000     -74.64690000
H      -44.02320000     -30.01490000     -71.45900000
H      -40.81170000     -32.77620000     -70.51610000
H      -40.85010000     -33.62650000     -72.82220000
C      -42.55000000     -30.98450000     -69.35650000
H      -42.54800000     -29.90120000     -69.33780000
H      -41.62130000     -31.18570000     -68.72720000
C      -44.22600000     -30.48680000     -74.03310000
H      -43.93600000     -29.42880000     -74.08450000
H      -44.05690000     -30.82100000     -75.09780000
S      -44.11800000     -31.37460000     -68.42690000
S      -46.01850000     -30.62500000     -73.65270000
C      -44.38270000     -33.18390000     -68.60550000
H      -43.43370000     -33.71320000     -68.87300000
H      -44.78980000     -33.54470000     -67.65800000
C      -46.22180000     -32.49010000     -73.61040000
H      -45.23190000     -32.90720000     -73.36410000
H      -46.52850000     -33.00430000     -74.53950000
C      -47.21890000     -32.82100000     -72.47500000
H      -46.85250000     -32.31260000     -71.57000000
H      -48.23310000     -32.31040000     -72.62660000
C      -45.38960000     -33.38430000     -69.75190000
H      -44.76010000     -33.11590000     -70.61730000
H      -46.11400000     -32.66050000     -69.54370000
C      -46.02010000     -34.71140000     -69.90760000
C      -45.88150000     -35.70320000     -69.00330000
C      -46.95470000     -35.00510000     -70.96510000
H      -45.31010000     -35.77680000     -68.05710000
C      -47.30000000     -36.35640000     -70.94250000
C      -47.45830000     -34.31100000     -72.10690000
C      -48.14960000     -35.19690000     -72.92630000
S      -46.71930000     -37.15380000     -69.46830000
S      -48.27030000     -36.83150000     -72.31850000
H      -48.59380000     -34.96430000     -73.84500000
