40
Properties=species:S:1:pos:R:3 #=T CELL(abcABC):=T 1.889726e+02=T 90.00000=T Traj:=T positionsangstrom=T Step:=T 0=T Bead:=T pbc="F F F"
C      -47.44500000     -30.78550000     -68.98240000
C      -46.38310000     -30.46550000     -69.82380000
C      -46.52180000     -30.50540000     -71.21640000
C      -47.77460000     -31.00200000     -71.76560000
C      -48.81640000     -31.30060000     -70.88980000
C      -48.60370000     -31.29860000     -69.48880000
H      -47.43660000     -30.48110000     -67.95850000
H      -45.66070000     -30.28940000     -71.85410000
H      -49.81800000     -31.55730000     -71.32570000
H      -49.52050000     -31.68320000     -68.93290000
C      -47.89690000     -31.12920000     -73.23410000
H      -47.07370000     -30.79290000     -73.76440000
H      -48.77540000     -30.58930000     -73.55460000
C      -45.15420000     -29.97130000     -69.17650000
H      -44.52930000     -29.48060000     -69.92990000
H      -45.44660000     -29.22300000     -68.44810000
S      -48.26990000     -32.85480000     -73.74370000
S      -44.19330000     -31.30380000     -68.30950000
C      -46.96260000     -33.83850000     -72.82600000
H      -47.24150000     -34.05550000     -71.81900000
H      -46.98520000     -34.79120000     -73.37330000
C      -43.73630000     -32.46360000     -69.65290000
H      -42.72400000     -32.73820000     -69.44440000
H      -43.77340000     -31.98260000     -70.68720000
C      -44.52320000     -33.77210000     -69.51930000
H      -44.40710000     -34.07370000     -68.49900000
H      -45.52550000     -33.67100000     -69.85430000
C      -45.59520000     -33.33420000     -72.87970000
H      -45.44320000     -32.67970000     -72.06430000
H      -45.58180000     -32.64590000     -73.74330000
C      -44.60420000     -34.44440000     -72.89180000
C      -44.44240000     -35.14980000     -74.01540000
C      -44.03980000     -35.08410000     -71.69560000
H      -44.64210000     -34.84100000     -75.03290000
C      -43.25860000     -36.25400000     -72.05470000
C      -43.92090000     -34.88520000     -70.30960000
C      -42.98110000     -35.67550000     -69.72470000
S      -43.28420000     -36.50170000     -73.77320000
S      -42.43590000     -37.05000000     -70.71950000
H      -42.84580000     -35.52920000     -68.68890000
