40
Properties=species:S:1:pos:R:3 #=T CELL(abcABC):=T 1.889726e+02=T 90.00000=T Traj:=T positionsangstrom=T Step:=T 0=T Bead:=T pbc="F F F"
C      -47.48970000     -34.36990000     -74.29190000
C      -46.61230000     -33.56580000     -73.48140000
C      -46.89440000     -33.59330000     -72.10370000
C      -47.95380000     -34.31370000     -71.52500000
C      -48.86990000     -34.92940000     -72.38600000
C      -48.67150000     -34.94780000     -73.75490000
H      -47.17220000     -34.64740000     -75.27670000
H      -46.25090000     -33.07890000     -71.46000000
H      -49.63360000     -35.55790000     -71.96320000
H      -49.37240000     -35.46000000     -74.38110000
C      -48.05950000     -34.38030000     -70.06760000
H      -49.10440000     -34.43580000     -69.76650000
H      -47.75650000     -33.41270000     -69.64480000
C      -45.50910000     -32.72130000     -74.00350000
H      -45.91900000     -32.16490000     -74.78940000
H      -45.04390000     -32.00880000     -73.25620000
S      -47.20220000     -35.84660000     -69.24000000
S      -44.12890000     -33.84170000     -74.51740000
C      -45.49620000     -35.74740000     -69.91500000
H      -45.21070000     -36.86920000     -69.89220000
H      -45.54610000     -35.47030000     -71.02340000
C      -43.45180000     -34.77980000     -73.04630000
H      -42.97200000     -35.73220000     -73.35140000
H      -44.40880000     -35.11170000     -72.50860000
C      -42.49870000     -34.08120000     -72.01190000
H      -42.37500000     -34.83020000     -71.16190000
H      -41.51660000     -33.93960000     -72.52000000
C      -44.44570000     -35.01080000     -69.15900000
H      -43.48070000     -35.57190000     -69.39530000
H      -44.71000000     -35.17840000     -68.10230000
C      -44.50940000     -33.44170000     -69.31060000
C      -45.36530000     -32.73400000     -68.55050000
C      -43.73270000     -32.55990000     -70.20610000
H      -46.01780000     -33.24950000     -67.81020000
C      -43.99320000     -31.24670000     -69.92000000
C      -42.82360000     -32.77050000     -71.29750000
C      -42.45780000     -31.52770000     -71.82120000
S      -45.30570000     -30.94270000     -68.86090000
S      -43.26440000     -30.15910000     -71.09900000
H      -41.87410000     -31.48830000     -72.76200000
