40
Properties=species:S:1:pos:R:3 #=T CELL(abcABC):=T 1.889726e+02=T 90.00000=T Traj:=T positionsangstrom=T Step:=T 0=T Bead:=T pbc="F F F"
C      -47.20710000     -34.60060000     -74.32610000
C      -46.50220000     -33.72620000     -73.45130000
C      -46.87590000     -33.55300000     -72.12160000
C      -47.96430000     -34.28140000     -71.61730000
C      -48.57840000     -35.26200000     -72.42630000
C      -48.36710000     -35.22160000     -73.84040000
H      -47.00050000     -34.60010000     -75.39110000
H      -46.31310000     -32.83340000     -71.46130000
H      -49.48080000     -35.77130000     -72.13320000
H      -48.96170000     -35.78630000     -74.52560000
C      -48.26850000     -34.16440000     -70.12680000
H      -49.30460000     -34.33940000     -69.82880000
H      -48.02450000     -33.11360000     -69.77620000
C      -45.32500000     -33.02340000     -73.93100000
H      -45.57810000     -32.48550000     -74.86640000
H      -44.85210000     -32.34010000     -73.25950000
S      -47.27440000     -35.34300000     -68.93670000
S      -43.94470000     -34.16330000     -74.30940000
C      -45.65530000     -35.68460000     -69.74050000
H      -45.32670000     -36.70840000     -69.47080000
H      -45.70650000     -35.64890000     -70.85470000
C      -43.46740000     -34.88980000     -72.65130000
H      -43.23270000     -36.00700000     -72.80260000
H      -44.32980000     -35.01860000     -71.95200000
C      -42.39500000     -34.05700000     -71.80670000
H      -42.11310000     -34.71440000     -70.98160000
H      -41.54890000     -33.93000000     -72.46340000
C      -44.38480000     -34.82970000     -69.28890000
H      -43.47160000     -35.16640000     -69.77750000
H      -44.32710000     -34.98670000     -68.17830000
C      -44.58400000     -33.34360000     -69.42130000
C      -45.47670000     -32.64970000     -68.61840000
C      -43.86950000     -32.50820000     -70.32190000
H      -46.15560000     -33.07780000     -67.94630000
C      -44.19880000     -31.17490000     -70.20980000
C      -42.86360000     -32.75270000     -71.33550000
C      -42.45940000     -31.54020000     -71.99780000
S      -45.50790000     -30.92280000     -69.00460000
S      -43.35020000     -30.16510000     -71.34450000
H      -41.70710000     -31.45600000     -72.74070000
