40
Properties=species:S:1:pos:R:3 #=T CELL(abcABC):=T 1.889726e+02=T 90.00000=T Traj:=T positionsangstrom=T Step:=T 0=T Bead:=T pbc="F F F"
C      -47.32730000     -34.89410000     -74.57500000
C      -46.38660000     -33.94630000     -74.12870000
C      -46.54500000     -33.46200000     -72.77450000
C      -47.62860000     -33.88730000     -72.03930000
C      -48.55010000     -34.81660000     -72.49380000
C      -48.49780000     -35.23980000     -73.81970000
H      -47.35260000     -35.11520000     -75.63100000
H      -45.72490000     -32.85040000     -72.30650000
H      -49.25030000     -35.16210000     -71.79390000
H      -49.26840000     -35.93070000     -74.26190000
C      -47.90380000     -33.32580000     -70.64970000
H      -48.87490000     -32.91820000     -70.60160000
H      -47.28610000     -32.51540000     -70.26240000
C      -45.17050000     -33.61620000     -74.94730000
H      -45.25950000     -33.99050000     -75.95990000
H      -45.03330000     -32.49310000     -74.96040000
S      -47.75060000     -34.69010000     -69.29740000
S      -43.51620000     -34.36060000     -74.36650000
C      -46.13740000     -35.54920000     -69.78420000
H      -46.30000000     -36.62680000     -69.55240000
H      -46.10200000     -35.42570000     -70.82420000
C      -43.47360000     -35.09010000     -72.62240000
H      -43.08730000     -36.09290000     -72.80720000
H      -44.47400000     -35.31890000     -72.28200000
C      -42.58230000     -34.32640000     -71.59060000
H      -42.44970000     -35.03320000     -70.74760000
H      -41.68130000     -34.18520000     -72.16710000
C      -44.89140000     -35.03330000     -69.02280000
H      -44.03980000     -35.65170000     -69.32020000
H      -44.95610000     -35.25150000     -67.94430000
C      -44.78260000     -33.50080000     -69.16150000
C      -45.34890000     -32.72630000     -68.20100000
C      -43.92390000     -32.67560000     -70.01460000
H      -45.90990000     -33.12420000     -67.38460000
C      -44.04710000     -31.31050000     -69.74810000
C      -43.06700000     -32.94530000     -71.11830000
C      -42.71780000     -31.71700000     -71.72600000
S      -45.25110000     -30.97800000     -68.47270000
S      -43.30570000     -30.22280000     -70.92170000
H      -42.03630000     -31.67080000     -72.56810000
