40
Properties=species:S:1:pos:R:3 #=T CELL(abcABC):=T 1.889726e+02=T 90.00000=T Traj:=T positionsangstrom=T Step:=T 0=T Bead:=T pbc="F F F"
C      -47.07120000     -35.07490000     -74.40730000
C      -46.28450000     -33.96880000     -74.00160000
C      -46.60230000     -33.44620000     -72.74110000
C      -47.71800000     -33.85450000     -72.01040000
C      -48.54500000     -34.89030000     -72.47660000
C      -48.16540000     -35.54320000     -73.63980000
H      -46.69880000     -35.60710000     -75.29890000
H      -46.06460000     -32.57960000     -72.37170000
H      -49.44380000     -35.12950000     -71.87730000
H      -48.57310000     -36.46970000     -74.10890000
C      -47.80520000     -33.29190000     -70.56910000
H      -48.84160000     -32.81870000     -70.40740000
H      -46.99910000     -32.55760000     -70.39870000
C      -45.16170000     -33.38700000     -74.78150000
H      -45.31320000     -33.44410000     -75.86120000
H      -45.07920000     -32.34070000     -74.55240000
S      -47.69570000     -34.68370000     -69.32130000
S      -43.46140000     -34.32500000     -74.51070000
C      -46.05460000     -35.43720000     -69.80050000
H      -46.22700000     -36.56790000     -69.91890000
H      -45.80950000     -35.10040000     -70.84830000
C      -43.72700000     -35.02320000     -72.79680000
H      -43.70800000     -36.15160000     -72.85120000
H      -44.71970000     -34.70880000     -72.48640000
C      -42.77350000     -34.43190000     -71.72100000
H      -42.66400000     -35.08250000     -70.81170000
H      -41.73270000     -34.37060000     -72.05460000
C      -44.85860000     -34.96210000     -68.89850000
H      -43.92000000     -35.32580000     -69.23790000
H      -45.22080000     -35.21820000     -67.90330000
C      -44.79390000     -33.41170000     -68.96680000
C      -45.31180000     -32.56900000     -68.01200000
C      -44.15200000     -32.67710000     -70.03540000
H      -45.96170000     -32.90850000     -67.22690000
C      -44.23600000     -31.25330000     -69.88130000
C      -43.22660000     -33.06040000     -71.13590000
C      -42.97280000     -31.88220000     -71.87010000
S      -45.05500000     -30.87940000     -68.38830000
S      -43.42080000     -30.35810000     -71.10060000
H      -42.47020000     -31.92560000     -72.81370000
