40
Properties=species:S:1:pos:R:3 #=T CELL(abcABC):=T 1.889726e+02=T 90.00000=T Traj:=T positionsangstrom=T Step:=T 0=T Bead:=T pbc="F F F"
C      -47.04950000     -34.99860000     -74.30660000
C      -46.32970000     -33.94180000     -73.71060000
C      -46.60210000     -33.50990000     -72.39180000
C      -47.63390000     -34.11460000     -71.69590000
C      -48.39010000     -35.10670000     -72.31950000
C      -48.10320000     -35.59200000     -73.58250000
H      -46.87440000     -35.40250000     -75.28700000
H      -45.99580000     -32.73210000     -71.97120000
H      -49.08730000     -35.63290000     -71.74190000
H      -48.68000000     -36.49050000     -73.91540000
C      -47.88350000     -33.62960000     -70.27510000
H      -48.97900000     -33.42170000     -70.09590000
H      -47.35430000     -32.70880000     -69.98510000
C      -45.26580000     -33.20910000     -74.48270000
H      -45.58970000     -33.00670000     -75.49390000
H      -45.02690000     -32.26130000     -73.99650000
S      -47.50280000     -34.97910000     -69.04110000
S      -43.70570000     -34.10920000     -74.68250000
C      -45.85770000     -35.49030000     -69.52560000
H      -45.89680000     -36.56790000     -69.43840000
H      -45.80730000     -35.20730000     -70.58270000
C      -43.59320000     -35.11300000     -73.06240000
H      -43.01360000     -36.00960000     -73.23230000
H      -44.60180000     -35.50090000     -72.89560000
C      -42.96370000     -34.31310000     -71.85810000
H      -42.87360000     -34.93810000     -70.92950000
H      -41.97370000     -34.10960000     -72.27310000
C      -44.66510000     -34.81960000     -68.71030000
H      -43.74900000     -35.35340000     -68.99270000
H      -44.87310000     -34.92790000     -67.60260000
C      -44.68670000     -33.32810000     -69.01990000
C      -45.25990000     -32.46620000     -68.12720000
C      -44.10320000     -32.59150000     -70.20910000
H      -45.78320000     -32.75280000     -67.16970000
C      -44.25880000     -31.21780000     -70.08640000
C      -43.45950000     -32.96910000     -71.43480000
C      -43.03230000     -31.81230000     -72.12810000
S      -45.03040000     -30.81380000     -68.58880000
S      -43.54320000     -30.30100000     -71.39030000
H      -42.38020000     -31.95330000     -73.03870000
