40
Properties=species:S:1:pos:R:3 #=T CELL(abcABC):=T 1.889726e+02=T 90.00000=T Traj:=T positionsangstrom=T Step:=T 0=T Bead:=T pbc="F F F"
C      -47.27920000     -34.68500000     -74.63920000
C      -46.33270000     -33.87440000     -73.97150000
C      -46.72150000     -33.44500000     -72.70400000
C      -47.88750000     -33.87830000     -72.04120000
C      -48.89310000     -34.55000000     -72.80520000
C      -48.58170000     -34.88630000     -74.13090000
H      -47.17780000     -35.00650000     -75.71560000
H      -46.04390000     -32.81100000     -72.20550000
H      -49.89010000     -34.73270000     -72.35880000
H      -49.37340000     -35.39320000     -74.64360000
C      -48.17790000     -33.49330000     -70.62550000
H      -49.25270000     -33.39770000     -70.54620000
H      -47.77160000     -32.54170000     -70.42430000
C      -45.03630000     -33.53780000     -74.67220000
H      -45.09740000     -33.59020000     -75.77460000
H      -44.68250000     -32.50150000     -74.44520000
S      -47.80150000     -34.93240000     -69.50490000
S      -43.59760000     -34.67490000     -74.33190000
C      -46.11170000     -35.53970000     -69.88270000
H      -46.09960000     -36.60650000     -69.81240000
H      -45.96200000     -35.43610000     -70.98120000
C      -43.44610000     -35.02120000     -72.46510000
H      -43.21290000     -36.07010000     -72.41470000
H      -44.40590000     -34.88300000     -71.99030000
C      -42.43670000     -34.18390000     -71.68010000
H      -42.01000000     -34.80290000     -70.87430000
H      -41.57500000     -34.04690000     -72.25480000
C      -44.81160000     -34.97150000     -69.20410000
H      -44.04120000     -35.40000000     -69.73470000
H      -44.92220000     -35.32920000     -68.15510000
C      -44.76330000     -33.49070000     -69.22140000
C      -45.58550000     -32.72080000     -68.45690000
C      -43.84830000     -32.66790000     -70.03170000
H      -46.47570000     -33.10840000     -67.87810000
C      -44.00720000     -31.30020000     -69.56490000
C      -42.83090000     -32.84750000     -71.06430000
C      -42.41310000     -31.61120000     -71.53260000
S      -45.33830000     -30.96770000     -68.54600000
S      -42.99810000     -30.25190000     -70.53500000
H      -41.71450000     -31.57630000     -72.34560000
