40
Properties=species:S:1:pos:R:3 #=T CELL(abcABC):=T 1.889726e+02=T 90.00000=T Traj:=T positionsangstrom=T Step:=T 0=T Bead:=T pbc="F F F"
C      -46.93650000     -34.12350000     -74.60130000
C      -46.20950000     -33.34860000     -73.72060000
C      -46.73320000     -33.25830000     -72.39910000
C      -48.00510000     -33.85090000     -72.04890000
C      -48.71970000     -34.55440000     -73.01310000
C      -48.13120000     -34.75740000     -74.27880000
H      -46.55730000     -34.56360000     -75.49480000
H      -46.07540000     -32.76840000     -71.63450000
H      -49.68450000     -35.02490000     -72.81720000
H      -48.74330000     -35.33450000     -74.99470000
C      -48.53330000     -33.80420000     -70.60270000
H      -49.59490000     -33.92950000     -70.59880000
H      -48.10950000     -32.94200000     -70.05290000
C      -44.69630000     -32.99140000     -74.00230000
H      -44.47580000     -32.39940000     -74.90630000
H      -44.31990000     -32.45490000     -73.14360000
S      -47.97760000     -35.25610000     -69.53440000
S      -43.69640000     -34.55840000     -74.22060000
C      -46.32240000     -35.73820000     -70.09390000
H      -46.05150000     -36.76310000     -69.72360000
H      -46.18270000     -35.73800000     -71.17060000
C      -43.56430000     -35.15560000     -72.46210000
H      -43.01200000     -36.12750000     -72.47640000
H      -44.55280000     -35.25930000     -72.06870000
C      -42.57990000     -34.30790000     -71.62840000
H      -42.30500000     -34.88860000     -70.73230000
H      -41.74240000     -34.12970000     -72.34700000
C      -45.09680000     -34.96090000     -69.41710000
H      -44.18870000     -35.49410000     -69.84340000
H      -45.12910000     -35.20630000     -68.36050000
C      -44.97630000     -33.44070000     -69.45440000
C      -45.61590000     -32.69120000     -68.53170000
C      -44.07680000     -32.62820000     -70.20800000
H      -46.29200000     -33.10830000     -67.87420000
C      -44.07250000     -31.30870000     -69.79920000
C      -43.03740000     -32.94870000     -71.24290000
C      -42.24740000     -31.84320000     -71.49460000
S      -45.24870000     -30.95480000     -68.51440000
S      -42.70970000     -30.40760000     -70.60430000
H      -41.31930000     -31.79720000     -72.07920000
