40
Properties=species:S:1:pos:R:3 #=T CELL(abcABC):=T 1.889726e+02=T 90.00000=T Traj:=T positionsangstrom=T Step:=T 0=T Bead:=T pbc="F F F"
C      -46.88780000     -33.91620000     -74.64390000
C      -46.10000000     -33.25060000     -73.63940000
C      -46.71840000     -33.08650000     -72.37530000
C      -47.93700000     -33.78410000     -72.07700000
C      -48.68270000     -34.45940000     -73.10160000
C      -48.16700000     -34.35890000     -74.38740000
H      -46.57690000     -33.86240000     -75.70640000
H      -46.22220000     -32.55640000     -71.54800000
H      -49.68950000     -34.83380000     -72.78700000
H      -48.75120000     -34.82910000     -75.14710000
C      -48.36540000     -33.72640000     -70.64550000
H      -49.47250000     -33.56270000     -70.58340000
H      -47.86330000     -32.95860000     -70.09830000
C      -44.78190000     -32.51900000     -73.95080000
H      -44.93510000     -31.91700000     -74.82510000
H      -44.74370000     -31.89300000     -73.06420000
S      -48.04360000     -35.24030000     -69.63670000
S      -43.28560000     -33.62180000     -74.07190000
C      -46.22340000     -35.69180000     -69.98150000
H      -46.23570000     -36.78220000     -70.01320000
H      -45.88050000     -35.21150000     -70.95830000
C      -43.42260000     -34.95130000     -72.81810000
H      -42.93730000     -35.75560000     -73.33950000
H      -44.50540000     -35.21900000     -72.68050000
C      -42.69900000     -34.72600000     -71.53160000
H      -43.02030000     -35.55900000     -70.86630000
H      -41.60530000     -34.93640000     -71.60710000
C      -45.17300000     -35.22810000     -68.98880000
H      -44.18590000     -35.70960000     -69.20550000
H      -45.33970000     -35.64830000     -67.93330000
C      -44.92130000     -33.77290000     -69.07050000
C      -45.66030000     -32.81990000     -68.37040000
C      -44.04540000     -33.10750000     -70.04540000
H      -46.34500000     -33.00150000     -67.59560000
C      -44.20520000     -31.71670000     -69.96690000
C      -43.05640000     -33.41440000     -71.00340000
C      -42.35170000     -32.28040000     -71.44110000
S      -45.30700000     -31.13450000     -68.74060000
S      -43.00570000     -30.81150000     -70.78960000
H      -41.58140000     -32.34090000     -72.19190000
