40
Properties=species:S:1:pos:R:3 #=T CELL(abcABC):=T 1.889726e+02=T 90.00000=T Traj:=T positionsangstrom=T Step:=T 0=T Bead:=T pbc="F F F"
C      -46.54660000     -33.34680000     -75.23150000
C      -45.77250000     -32.94060000     -74.15080000
C      -46.29330000     -32.99650000     -72.86420000
C      -47.61040000     -33.42010000     -72.67420000
C      -48.46190000     -33.79090000     -73.81340000
C      -47.86760000     -33.84930000     -75.07830000
H      -46.07000000     -33.44140000     -76.15710000
H      -45.78660000     -32.71820000     -71.96970000
H      -49.47620000     -34.22320000     -73.72220000
H      -48.54190000     -34.07850000     -75.89870000
C      -48.28210000     -33.21680000     -71.34160000
H      -49.30780000     -32.97690000     -71.58790000
H      -47.84510000     -32.37700000     -70.89230000
C      -44.28060000     -32.55960000     -74.24340000
H      -44.19400000     -32.12860000     -75.25280000
H      -44.16930000     -31.86940000     -73.48720000
S      -48.31360000     -34.57540000     -70.21560000
S      -43.04480000     -34.04050000     -74.11470000
C      -46.75130000     -35.57190000     -70.56860000
H      -47.08010000     -36.61630000     -70.56960000
H      -46.45480000     -35.32400000     -71.60000000
C      -43.57460000     -35.02950000     -72.64310000
H      -43.46340000     -36.06910000     -72.90450000
H      -44.65010000     -34.85400000     -72.49350000
C      -42.85020000     -34.74820000     -71.27750000
H      -43.06110000     -35.57460000     -70.56310000
H      -41.77630000     -34.70410000     -71.50760000
C      -45.60400000     -35.50010000     -69.44790000
H      -44.83300000     -36.04600000     -70.01790000
H      -45.96610000     -36.22630000     -68.59650000
C      -45.23900000     -34.06660000     -68.99800000
C      -45.94930000     -33.39200000     -68.03340000
C      -44.23340000     -33.26610000     -69.58930000
H      -46.82370000     -33.71490000     -67.46370000
C      -44.16400000     -32.00600000     -69.14450000
C      -43.22540000     -33.44560000     -70.62180000
C      -42.52690000     -32.31370000     -70.91830000
S      -45.30490000     -31.77570000     -67.84650000
S      -43.00000000     -30.96340000     -69.89450000
H      -41.68960000     -32.31920000     -71.61310000
