40
Properties=species:S:1:pos:R:3 #=T CELL(abcABC):=T 1.889726e+02=T 90.00000=T Traj:=T positionsangstrom=T Step:=T 0=T Bead:=T pbc="F F F"
C      -46.56970000     -33.49280000     -75.06300000
C      -45.82010000     -32.98620000     -74.04120000
C      -46.30170000     -32.85420000     -72.70420000
C      -47.58480000     -33.35410000     -72.39620000
C      -48.29280000     -33.97470000     -73.38510000
C      -47.84350000     -34.04600000     -74.72280000
H      -46.18130000     -33.58930000     -76.10260000
H      -45.74910000     -32.37920000     -71.92190000
H      -49.11550000     -34.63710000     -73.19800000
H      -48.43470000     -34.36610000     -75.58870000
C      -48.17810000     -33.33860000     -71.04250000
H      -49.16670000     -33.01190000     -70.93580000
H      -47.65000000     -32.67170000     -70.33450000
C      -44.36870000     -32.64040000     -74.24190000
H      -44.32680000     -32.08070000     -75.20150000
H      -44.16620000     -31.78420000     -73.54320000
S      -48.31890000     -35.10930000     -70.29380000
S      -43.17870000     -33.99490000     -74.10360000
C      -46.54760000     -35.62860000     -70.42460000
H      -46.56950000     -36.73100000     -70.70870000
H      -46.17460000     -35.10960000     -71.32320000
C      -43.79390000     -35.03740000     -72.73260000
H      -43.87560000     -36.12430000     -73.01250000
H      -44.75500000     -34.73010000     -72.51420000
C      -43.12480000     -34.82090000     -71.36780000
H      -43.64030000     -35.54360000     -70.74790000
H      -42.03690000     -35.03120000     -71.53710000
C      -45.71270000     -35.30850000     -69.21500000
H      -44.81250000     -35.94930000     -69.18240000
H      -46.29010000     -35.55050000     -68.30150000
C      -45.29720000     -33.86620000     -69.03390000
C      -45.86410000     -33.03550000     -68.09510000
C      -44.27190000     -33.17280000     -69.71330000
H      -46.56690000     -33.30650000     -67.31720000
C      -44.21260000     -31.80310000     -69.42090000
C      -43.34920000     -33.43660000     -70.83570000
C      -42.56870000     -32.35970000     -71.14020000
S      -45.07150000     -31.44590000     -67.96230000
S      -42.91350000     -30.93240000     -70.20030000
H      -41.83650000     -32.23150000     -71.94970000
