40
Properties=species:S:1:pos:R:3 #=T CELL(abcABC):=T 1.889726e+02=T 90.00000=T Traj:=T positionsangstrom=T Step:=T 0=T Bead:=T pbc="F F F"
C      -45.97000000     -32.62250000     -75.13940000
C      -45.32370000     -32.60260000     -73.84400000
C      -46.19280000     -32.87220000     -72.75950000
C      -47.60250000     -33.15700000     -72.83990000
C      -48.07730000     -33.32840000     -74.11690000
C      -47.32350000     -33.01730000     -75.23340000
H      -45.41470000     -32.51090000     -76.03550000
H      -45.75160000     -32.77190000     -71.73690000
H      -49.04690000     -33.80690000     -74.33050000
H      -47.69410000     -32.98620000     -76.25900000
C      -48.25740000     -33.26030000     -71.50050000
H      -49.29080000     -32.90560000     -71.64850000
H      -47.74000000     -32.53060000     -70.86140000
C      -43.87450000     -32.40510000     -73.66670000
H      -43.38840000     -31.71830000     -74.38920000
H      -43.72900000     -31.96980000     -72.66820000
S      -48.64490000     -34.77980000     -70.48750000
S      -42.89740000     -33.87870000     -73.87850000
C      -47.04390000     -35.75900000     -70.50250000
H      -47.28450000     -36.78890000     -70.50930000
H      -46.65760000     -35.41100000     -71.45300000
C      -43.74700000     -35.12970000     -72.84700000
H      -43.56700000     -36.12290000     -73.30000000
H      -44.81040000     -34.93670000     -72.89580000
C      -43.23680000     -35.17250000     -71.33800000
H      -43.77790000     -36.02800000     -70.87290000
H      -42.16710000     -35.49780000     -71.28250000
C      -46.12060000     -35.47350000     -69.33130000
H      -45.19730000     -36.02670000     -69.47870000
H      -46.58450000     -35.88300000     -68.34660000
C      -45.58440000     -34.03420000     -69.08070000
C      -46.31050000     -33.15760000     -68.30860000
C      -44.43990000     -33.45750000     -69.68820000
H      -47.14470000     -33.32500000     -67.68510000
C      -44.24260000     -32.14390000     -69.17070000
C      -43.39000000     -33.88450000     -70.57260000
C      -42.29710000     -32.97760000     -70.57430000
S      -45.58910000     -31.59580000     -68.18260000
S      -42.62100000     -31.50990000     -69.60930000
H      -41.47110000     -32.99650000     -71.28900000
