40
Properties=species:S:1:pos:R:3 #=T CELL(abcABC):=T 1.889726e+02=T 90.00000=T Traj:=T positionsangstrom=T Step:=T 0=T Bead:=T pbc="F F F"
C      -46.32820000     -33.37040000     -74.80530000
C      -45.56580000     -32.81110000     -73.77210000
C      -46.15650000     -32.56920000     -72.52020000
C      -47.52210000     -32.84010000     -72.37370000
C      -48.25720000     -33.41050000     -73.42980000
C      -47.72920000     -33.63460000     -74.67630000
H      -45.72960000     -33.77910000     -75.60940000
H      -45.59810000     -32.07610000     -71.65030000
H      -49.28770000     -33.74260000     -73.25320000
H      -48.23380000     -34.01180000     -75.56490000
C      -48.23000000     -32.90270000     -71.00480000
H      -49.24580000     -32.44600000     -71.07030000
H      -47.63440000     -32.42280000     -70.21600000
C      -44.10460000     -32.51800000     -73.86480000
H      -43.89620000     -32.02080000     -74.86320000
H      -43.75390000     -31.83490000     -73.06150000
S      -48.52100000     -34.66150000     -70.60230000
S      -43.05170000     -34.10390000     -74.01140000
C      -46.89940000     -35.50240000     -71.05500000
H      -47.28150000     -36.53200000     -71.33510000
H      -46.46970000     -34.88580000     -71.88970000
C      -43.46480000     -35.21390000     -72.57540000
H      -43.34850000     -36.29340000     -72.79630000
H      -44.50020000     -34.91870000     -72.40760000
C      -42.61830000     -34.89280000     -71.34280000
H      -42.50210000     -35.76490000     -70.67880000
H      -41.55480000     -34.70940000     -71.67380000
C      -45.92740000     -35.51620000     -69.84100000
H      -45.09580000     -36.18280000     -70.09220000
H      -46.42140000     -35.90780000     -68.96030000
C      -45.52910000     -34.13700000     -69.38920000
C      -46.25180000     -33.41870000     -68.54520000
C      -44.26070000     -33.44280000     -69.82440000
H      -47.11070000     -33.81830000     -68.01500000
C      -44.23520000     -32.22090000     -69.25630000
C      -43.02560000     -33.64660000     -70.59500000
C      -42.24530000     -32.49190000     -70.69060000
S      -45.57760000     -31.81940000     -68.16520000
S      -42.90960000     -31.16320000     -69.75260000
H      -41.41450000     -32.37870000     -71.35960000
