40
Properties=species:S:1:pos:R:3 #=T CELL(abcABC):=T 1.889726e+02=T 90.00000=T Traj:=T positionsangstrom=T Step:=T 0=T Bead:=T pbc="F F F"
C      -42.86070000     -34.26770000     -71.98020000
C      -43.03170000     -33.14010000     -72.85160000
C      -42.92320000     -31.86720000     -72.25960000
C      -42.64720000     -31.71810000     -70.84910000
C      -42.35220000     -32.78190000     -70.08070000
C      -42.41440000     -34.06230000     -70.64420000
H      -43.05740000     -35.34460000     -72.30160000
H      -43.03850000     -31.06920000     -72.95340000
H      -42.08870000     -32.60250000     -69.06320000
H      -42.25440000     -34.93210000     -69.97810000
C      -42.71220000     -30.28170000     -70.32620000
H      -42.07070000     -29.75440000     -71.01390000
H      -42.28500000     -30.14570000     -69.33710000
C      -43.35800000     -33.29630000     -74.28660000
H      -43.81250000     -32.33830000     -74.73470000
H      -42.43660000     -33.39960000     -74.86640000
S      -44.39450000     -29.45880000     -70.33750000
S      -44.37240000     -34.76200000     -74.92190000
C      -45.39240000     -30.70740000     -69.50800000
H      -44.84240000     -31.29980000     -68.78950000
H      -46.15400000     -30.18500000     -69.02020000
C      -46.12850000     -34.16130000     -74.62720000
H      -46.75700000     -34.91780000     -74.97940000
H      -46.24610000     -33.40510000     -75.39470000
C      -46.45020000     -33.57760000     -73.22910000
H      -45.66750000     -32.83270000     -72.95890000
H      -47.34910000     -32.94980000     -73.42760000
C      -46.03100000     -31.69060000     -70.51880000
H      -45.21250000     -31.94220000     -71.15990000
H      -46.71230000     -31.06980000     -71.08140000
C      -46.69750000     -32.89520000     -69.95240000
C      -47.13180000     -32.98590000     -68.63520000
C      -47.01760000     -34.10500000     -70.78430000
H      -46.84200000     -32.26370000     -67.89500000
C      -47.50790000     -35.10040000     -69.95600000
C      -46.79460000     -34.54240000     -72.14040000
C      -47.18060000     -35.82670000     -72.34080000
S      -47.65170000     -34.63780000     -68.26000000
S      -47.75550000     -36.55390000     -70.80370000
H      -47.18170000     -36.44680000     -73.25930000
