40
Properties=species:S:1:pos:R:3 #=T CELL(abcABC):=T 1.889726e+02=T 90.00000=T Traj:=T positionsangstrom=T Step:=T 0=T Bead:=T pbc="F F F"
C      -46.31230000     -33.20070000     -74.97230000
C      -45.53240000     -32.80300000     -73.85400000
C      -46.24490000     -32.59630000     -72.61920000
C      -47.59940000     -32.92420000     -72.51350000
C      -48.34120000     -33.16300000     -73.65740000
C      -47.71310000     -33.31000000     -74.87450000
H      -45.79720000     -33.08390000     -75.94250000
H      -45.57170000     -32.43820000     -71.78360000
H      -49.42910000     -33.25100000     -73.56350000
H      -48.29380000     -33.59550000     -75.80350000
C      -48.24580000     -32.87410000     -71.19320000
H      -49.21560000     -32.45340000     -71.18490000
H      -47.65970000     -32.47010000     -70.35570000
C      -44.05560000     -32.54080000     -73.84930000
H      -43.83420000     -31.84750000     -74.63200000
H      -43.89490000     -31.87870000     -72.99100000
S      -48.54650000     -34.73470000     -70.59620000
S      -42.92970000     -33.98400000     -73.92740000
C      -46.94180000     -35.57230000     -70.88990000
H      -47.03530000     -36.60250000     -71.20670000
H      -46.48900000     -35.09570000     -71.73720000
C      -43.62910000     -35.10700000     -72.58760000
H      -43.60350000     -36.09440000     -73.00660000
H      -44.69260000     -34.82380000     -72.63150000
C      -42.95820000     -35.10330000     -71.28690000
H      -43.37830000     -35.94080000     -70.70470000
H      -41.90930000     -35.36400000     -71.54070000
C      -45.89150000     -35.57220000     -69.72640000
H      -44.98520000     -36.19260000     -70.02580000
H      -46.25550000     -36.09520000     -68.83650000
C      -45.42110000     -34.12870000     -69.30800000
C      -46.15130000     -33.44610000     -68.39500000
C      -44.27350000     -33.39230000     -69.80530000
H      -47.07410000     -33.71620000     -67.93230000
C      -44.26340000     -32.09370000     -69.29480000
C      -43.09140000     -33.78430000     -70.52660000
C      -42.19570000     -32.68770000     -70.58810000
S      -45.61360000     -31.81280000     -68.18570000
S      -42.74130000     -31.31060000     -69.67000000
H      -41.15660000     -32.65100000     -70.93170000
