40
Properties=species:S:1:pos:R:3 #=T CELL(abcABC):=T 1.889726e+02=T 90.00000=T Traj:=T positionsangstrom=T Step:=T 0=T Bead:=T pbc="F F F"
C      -42.31540000     -33.65330000     -73.68500000
C      -42.95260000     -32.40650000     -73.52820000
C      -42.85430000     -31.74400000     -72.30170000
C      -42.22510000     -32.35700000     -71.17590000
C      -41.69750000     -33.66890000     -71.35530000
C      -41.73170000     -34.32540000     -72.57690000
H      -42.23990000     -34.17270000     -74.67620000
H      -43.26220000     -30.81980000     -72.16130000
H      -41.20020000     -34.15730000     -70.50740000
H      -41.05760000     -35.19890000     -72.73040000
C      -42.21530000     -31.67140000     -69.81790000
H      -41.29920000     -31.01430000     -69.82470000
H      -41.89010000     -32.39210000     -69.09380000
C      -43.63390000     -31.66510000     -74.60350000
H      -43.39560000     -30.64630000     -74.65980000
H      -43.31000000     -32.14690000     -75.55830000
S      -43.67040000     -30.65420000     -69.33900000
S      -45.53450000     -31.86870000     -74.71910000
C      -44.79730000     -32.00070000     -68.85350000
H      -44.35110000     -32.36160000     -67.91040000
H      -45.81100000     -31.51280000     -68.70100000
C      -45.99310000     -33.19130000     -73.49930000
H      -45.24600000     -33.77180000     -73.00410000
H      -46.45770000     -34.05930000     -73.96040000
C      -46.96900000     -32.64830000     -72.44540000
H      -46.39120000     -31.83250000     -71.95420000
H      -47.74070000     -32.08170000     -72.99950000
C      -44.88350000     -33.05770000     -69.91100000
H      -43.93260000     -33.43700000     -70.05050000
H      -45.17650000     -32.51560000     -70.85900000
C      -45.91600000     -34.16100000     -69.69210000
C      -45.76970000     -35.21130000     -68.80180000
C      -47.10880000     -34.24200000     -70.47430000
H      -45.10280000     -35.13310000     -67.93100000
C      -47.82960000     -35.33250000     -70.03830000
C      -47.65420000     -33.66840000     -71.64900000
C      -48.87850000     -34.20110000     -72.00770000
S      -47.15300000     -36.23110000     -68.76190000
S      -49.22720000     -35.70310000     -71.04850000
H      -49.46620000     -33.84830000     -72.85830000
