40
Properties=species:S:1:pos:R:3 #=T CELL(abcABC):=T 1.889726e+02=T 90.00000=T Traj:=T positionsangstrom=T Step:=T 0=T Bead:=T pbc="F F F"
C      -45.50890000     -37.30080000     -72.35250000
C      -45.14520000     -36.29970000     -71.44040000
C      -46.06110000     -35.23810000     -71.26170000
C      -47.22120000     -35.14450000     -72.01680000
C      -47.54810000     -36.19400000     -72.92600000
C      -46.73290000     -37.26240000     -73.02510000
H      -44.93750000     -38.26060000     -72.41850000
H      -45.91030000     -34.46640000     -70.51910000
H      -48.44540000     -36.13930000     -73.47730000
H      -46.98770000     -38.08490000     -73.61490000
C      -48.30430000     -34.06910000     -71.73220000
H      -47.99520000     -33.38460000     -70.94180000
H      -49.20500000     -34.59990000     -71.39340000
C      -43.75640000     -36.31510000     -70.89900000
H      -43.85340000     -35.97630000     -69.86280000
H      -43.35310000     -37.33440000     -70.79190000
S      -48.66670000     -33.08410000     -73.33910000
S      -42.44630000     -35.28310000     -71.79490000
C      -47.74600000     -31.46020000     -73.04290000
H      -47.77570000     -31.06500000     -74.02490000
H      -48.36910000     -30.85990000     -72.37800000
C      -43.38600000     -34.12990000     -72.84800000
H      -44.46660000     -34.17340000     -72.89980000
H      -43.09330000     -34.35670000     -73.92320000
C      -42.98960000     -32.62020000     -72.58650000
H      -41.87400000     -32.63070000     -72.90140000
H      -43.51970000     -31.98150000     -73.25300000
C      -46.24750000     -31.58120000     -72.69900000
H      -45.82180000     -30.74010000     -73.29630000
H      -45.89220000     -32.63410000     -73.09080000
C      -45.91310000     -31.35140000     -71.20010000
C      -46.77150000     -30.86950000     -70.21010000
C      -44.61540000     -31.67040000     -70.66220000
H      -47.76520000     -30.52520000     -70.26660000
C      -44.58160000     -31.52070000     -69.26320000
C      -43.31370000     -32.12330000     -71.21210000
C      -42.33730000     -32.09360000     -70.26950000
S      -46.03250000     -30.79760000     -68.58470000
S      -42.93020000     -31.69470000     -68.62430000
H      -41.35100000     -32.55290000     -70.42310000
