40
Properties=species:S:1:pos:R:3 #=T CELL(abcABC):=T 1.889726e+02=T 90.00000=T Traj:=T positionsangstrom=T Step:=T 0=T Bead:=T pbc="F F F"
C      -43.69700000     -35.16620000     -72.52010000
C      -43.53990000     -33.84080000     -72.94850000
C      -43.23660000     -32.86760000     -72.04380000
C      -43.11400000     -33.19150000     -70.71000000
C      -43.10790000     -34.49720000     -70.26570000
C      -43.44740000     -35.52380000     -71.14590000
H      -43.96850000     -35.89300000     -73.17700000
H      -43.09270000     -31.85260000     -72.37400000
H      -42.83240000     -34.74300000     -69.24850000
H      -43.27310000     -36.54360000     -70.77070000
C      -42.77640000     -32.17520000     -69.63050000
H      -41.75840000     -32.17420000     -69.44150000
H      -43.19290000     -32.48910000     -68.66810000
C      -43.78750000     -33.62200000     -74.42310000
H      -43.66000000     -32.54500000     -74.58260000
H      -43.12610000     -34.11670000     -75.09840000
S      -43.17690000     -30.40520000     -70.10010000
S      -45.49210000     -34.12270000     -75.09280000
C      -44.94740000     -30.04140000     -69.77930000
H      -45.05700000     -30.00650000     -68.70460000
H      -45.13570000     -29.01310000     -70.16250000
C      -46.68790000     -32.88950000     -74.56960000
H      -47.69280000     -33.18890000     -74.87050000
H      -46.49410000     -32.01770000     -75.21850000
C      -46.68180000     -32.48860000     -73.12470000
H      -45.69780000     -32.12860000     -72.87890000
H      -47.45970000     -31.66090000     -73.01230000
C      -45.99940000     -30.99600000     -70.44720000
H      -45.61140000     -31.03520000     -71.47920000
H      -46.96920000     -30.42910000     -70.61030000
C      -46.19110000     -32.31990000     -69.82670000
C      -46.24150000     -32.62250000     -68.48170000
C      -46.76540000     -33.39680000     -70.65450000
H      -46.03190000     -31.83380000     -67.73520000
C      -47.11600000     -34.52340000     -69.88590000
C      -46.93690000     -33.65010000     -72.07640000
C      -47.21800000     -34.95350000     -72.40990000
S      -46.88420000     -34.30380000     -68.19150000
S      -47.40710000     -35.91600000     -70.97350000
H      -47.49000000     -35.42850000     -73.39630000
