40
Properties=species:S:1:pos:R:3 #=T CELL(abcABC):=T 1.889726e+02=T 90.00000=T Traj:=T positionsangstrom=T Step:=T 0=T Bead:=T pbc="F F F"
C      -43.65910000     -34.84470000     -72.07520000
C      -43.45940000     -33.69260000     -72.91020000
C      -42.86930000     -32.52180000     -72.45260000
C      -42.48480000     -32.46530000     -71.08880000
C      -42.69830000     -33.53910000     -70.25730000
C      -43.23070000     -34.71540000     -70.76110000
H      -43.99610000     -35.74000000     -72.50490000
H      -42.70730000     -31.61560000     -73.06290000
H      -42.34920000     -33.49490000     -69.23310000
H      -43.43780000     -35.57310000     -70.08800000
C      -41.97730000     -31.19630000     -70.45850000
H      -41.36460000     -30.56540000     -71.12500000
H      -41.50150000     -31.61930000     -69.54660000
C      -43.79270000     -33.79920000     -74.37010000
H      -43.61830000     -32.80520000     -74.80750000
H      -43.06300000     -34.50330000     -74.89750000
S      -43.28950000     -29.91400000     -70.04010000
S      -45.39820000     -34.43850000     -75.07950000
C      -44.57700000     -30.93150000     -69.12460000
H      -44.02690000     -31.82180000     -68.79220000
H      -44.90850000     -30.29090000     -68.31690000
C      -46.71080000     -33.09810000     -74.56270000
H      -47.64050000     -33.66760000     -74.67820000
H      -46.67220000     -32.25340000     -75.28980000
C      -46.50300000     -32.70550000     -73.10260000
H      -45.43590000     -32.33770000     -72.94060000
H      -47.11730000     -31.78400000     -72.93100000
C      -45.82840000     -31.29700000     -69.96200000
H      -45.67050000     -31.30010000     -71.07500000
H      -46.54030000     -30.46530000     -69.78570000
C      -46.44160000     -32.67530000     -69.64900000
C      -46.69850000     -33.08420000     -68.36100000
C      -46.82440000     -33.64260000     -70.62020000
H      -46.37000000     -32.59760000     -67.40050000
C      -47.34700000     -34.80560000     -70.05040000
C      -46.79270000     -33.82740000     -72.11080000
C      -47.35260000     -34.99910000     -72.51920000
S      -47.44020000     -34.65220000     -68.29860000
S      -47.82060000     -36.06690000     -71.17400000
H      -47.43010000     -35.37990000     -73.54280000
