40
Properties=species:S:1:pos:R:3 #=T CELL(abcABC):=T 1.889726e+02=T 90.00000=T Traj:=T positionsangstrom=T Step:=T 0=T Bead:=T pbc="F F F"
C      -43.67340000     -35.07680000     -72.59870000
C      -43.51940000     -33.78880000     -73.08950000
C      -43.20480000     -32.79540000     -72.15230000
C      -43.07380000     -33.10430000     -70.79040000
C      -43.08170000     -34.45250000     -70.34910000
C      -43.51880000     -35.45890000     -71.22440000
H      -44.04750000     -35.80540000     -73.24260000
H      -43.24590000     -31.74190000     -72.41160000
H      -42.93750000     -34.71640000     -69.26090000
H      -43.79030000     -36.51260000     -70.93050000
C      -42.66010000     -31.97850000     -69.82180000
H      -41.54970000     -31.86920000     -69.82280000
H      -42.96350000     -32.20580000     -68.71540000
C      -43.86900000     -33.41680000     -74.50690000
H      -43.96460000     -32.33100000     -74.58520000
H      -42.98620000     -33.80450000     -75.12190000
S      -43.16420000     -30.27310000     -70.18110000
S      -45.39000000     -34.16020000     -75.23820000
C      -44.77530000     -30.38780000     -69.24860000
H      -44.42780000     -30.96450000     -68.41320000
H      -45.04040000     -29.42680000     -68.76130000
C      -46.78040000     -32.97280000     -74.58850000
H      -47.76170000     -33.42690000     -74.74350000
H      -46.63670000     -32.00340000     -75.09780000
C      -46.57290000     -32.66190000     -73.12220000
H      -45.53770000     -32.27840000     -73.01090000
H      -47.15310000     -31.75880000     -72.90560000
C      -45.99390000     -30.89660000     -70.07240000
H      -45.69560000     -30.83770000     -71.14810000
H      -46.84040000     -30.27600000     -69.92440000
C      -46.39140000     -32.32910000     -69.75350000
C      -46.63760000     -32.73860000     -68.44340000
C      -46.57470000     -33.44340000     -70.65110000
H      -46.49750000     -32.05210000     -67.63260000
C      -46.85500000     -34.56410000     -69.88690000
C      -46.86470000     -33.69700000     -72.08040000
C      -47.29980000     -34.94530000     -72.34490000
S      -46.99590000     -34.39410000     -68.21730000
S      -47.46770000     -35.93220000     -70.87730000
H      -47.36580000     -35.39000000     -73.34630000
