40
Properties=species:S:1:pos:R:3 #=T CELL(abcABC):=T 1.889726e+02=T 90.00000=T Traj:=T positionsangstrom=T Step:=T 0=T Bead:=T pbc="F F F"
C      -45.00260000     -31.45940000     -67.76910000
C      -44.14440000     -32.45660000     -68.17150000
C      -44.63280000     -33.77510000     -68.24420000
C      -46.01620000     -34.02140000     -68.03630000
C      -46.91290000     -33.05080000     -67.60920000
C      -46.28950000     -31.79990000     -67.35830000
H      -44.64560000     -30.44760000     -67.79950000
H      -43.95120000     -34.51670000     -68.51130000
H      -47.92160000     -33.20130000     -67.15080000
H      -46.88430000     -31.03930000     -66.86320000
C      -46.57530000     -35.41430000     -68.18500000
H      -47.66630000     -35.41170000     -68.37440000
H      -46.50680000     -35.93620000     -67.26930000
C      -42.76930000     -32.20840000     -68.73590000
H      -41.95690000     -31.99680000     -67.97640000
H      -42.40080000     -33.17760000     -69.18080000
S      -45.73850000     -36.69470000     -69.29790000
S      -42.68930000     -30.95730000     -70.11540000
C      -45.99500000     -36.05660000     -71.07750000
H      -45.85210000     -36.94490000     -71.68710000
H      -47.03020000     -35.67560000     -71.15420000
C      -43.49380000     -31.79890000     -71.50700000
H      -43.20970000     -32.85360000     -71.44860000
H      -43.01520000     -31.28440000     -72.34950000
C      -45.06360000     -31.54180000     -71.61160000
H      -45.37750000     -32.11250000     -70.74540000
H      -45.24900000     -30.46080000     -71.44870000
C      -45.07500000     -34.94650000     -71.51500000
H      -44.05700000     -35.27340000     -71.36060000
H      -45.43300000     -34.06060000     -70.96410000
C      -45.29080000     -34.62400000     -72.95050000
C      -45.43830000     -35.59650000     -73.89970000
C      -45.69000000     -33.32530000     -73.42990000
H      -45.05020000     -36.59240000     -73.87630000
C      -46.01560000     -33.35440000     -74.78940000
C      -45.70510000     -31.97190000     -72.89270000
C      -46.21480000     -31.10720000     -73.81840000
S      -45.97320000     -34.94040000     -75.51180000
S      -46.61600000     -31.81340000     -75.36340000
H      -46.56920000     -30.05040000     -73.58130000
