40
Properties=species:S:1:pos:R:3 #=T CELL(abcABC):=T 1.889726e+02=T 90.00000=T Traj:=T positionsangstrom=T Step:=T 0=T Bead:=T pbc="F F F"
C      -45.68500000     -30.26290000     -69.05780000
C      -44.40680000     -30.86870000     -69.19210000
C      -44.26640000     -32.11490000     -68.53710000
C      -45.25640000     -32.74810000     -67.80870000
C      -46.53010000     -32.07830000     -67.70140000
C      -46.72740000     -30.81420000     -68.31800000
H      -45.87340000     -29.41160000     -69.61660000
H      -43.29400000     -32.57390000     -68.58860000
H      -47.36800000     -32.55740000     -67.07230000
H      -47.69520000     -30.28960000     -68.29030000
C      -45.19180000     -34.07640000     -67.16510000
H      -46.14840000     -34.36620000     -66.84450000
H      -44.70960000     -34.01940000     -66.15230000
C      -43.18650000     -30.35390000     -69.87780000
H      -42.90180000     -29.32000000     -69.49080000
H      -42.37810000     -31.04140000     -69.79470000
S      -44.46680000     -35.31640000     -68.32810000
S      -43.42830000     -30.07630000     -71.76700000
C      -45.49520000     -35.08340000     -69.84850000
H      -46.23250000     -35.91160000     -69.94970000
H      -46.00090000     -34.14580000     -69.81630000
C      -44.05450000     -31.70950000     -72.35940000
H      -43.46690000     -32.53500000     -71.88710000
H      -43.84050000     -31.80220000     -73.38480000
C      -45.52610000     -31.93980000     -72.21810000
H      -45.71980000     -32.33620000     -71.20400000
H      -46.00490000     -30.96170000     -72.35700000
C      -44.50400000     -35.22850000     -70.96750000
H      -43.83630000     -36.04260000     -70.74370000
H      -43.79140000     -34.31580000     -70.94220000
C      -45.16390000     -35.45910000     -72.28100000
C      -45.15210000     -36.69920000     -72.87500000
C      -45.76020000     -34.44620000     -73.09030000
H      -44.72360000     -37.62640000     -72.54070000
C      -46.25280000     -35.03940000     -74.27780000
C      -46.02470000     -32.99170000     -73.11740000
C      -46.76350000     -32.62400000     -74.27520000
S      -46.14910000     -36.78260000     -74.37150000
S      -47.17320000     -34.03690000     -75.25990000
H      -46.91040000     -31.62520000     -74.66210000
