40
Properties=species:S:1:pos:R:3 #=T CELL(abcABC):=T 1.889726e+02=T 90.00000=T Traj:=T positionsangstrom=T Step:=T 0=T Bead:=T pbc="F F F"
C      -45.35470000     -33.91870000     -74.79160000
C      -44.68580000     -32.68670000     -74.58750000
C      -43.42520000     -32.70730000     -73.99870000
C      -42.76540000     -33.88490000     -73.57400000
C      -43.48120000     -35.09400000     -73.85620000
C      -44.77450000     -35.15660000     -74.42040000
H      -46.36830000     -33.99120000     -75.21000000
H      -42.85740000     -31.73660000     -73.77260000
H      -43.05850000     -36.08310000     -73.57760000
H      -45.29710000     -36.06890000     -74.50450000
C      -41.47230000     -33.83220000     -72.84530000
H      -40.75540000     -33.18110000     -73.44430000
H      -41.00490000     -34.80220000     -72.73010000
C      -45.46930000     -31.39680000     -74.81490000
H      -44.85940000     -30.64750000     -75.28230000
H      -46.39940000     -31.42730000     -75.36380000
S      -41.58110000     -32.86330000     -71.29670000
S      -45.72560000     -30.60600000     -73.10900000
C      -42.80700000     -33.81970000     -70.25750000
H      -42.88130000     -34.93730000     -70.56400000
H      -42.34240000     -33.93720000     -69.28960000
C      -46.83820000     -31.73220000     -72.22550000
H      -46.57910000     -32.77550000     -72.25980000
H      -47.87850000     -31.58880000     -72.44120000
C      -46.70520000     -31.35430000     -70.71220000
H      -45.68300000     -31.08200000     -70.49300000
H      -47.28530000     -30.46750000     -70.57000000
C      -44.18120000     -33.18270000     -70.24070000
H      -44.50750000     -33.02980000     -71.29500000
H      -44.28540000     -32.25200000     -69.69080000
C      -45.18950000     -34.15130000     -69.61000000
C      -45.02860000     -35.39190000     -69.02270000
C      -46.57080000     -33.66970000     -69.44100000
H      -44.15000000     -35.98910000     -68.91000000
C      -47.40840000     -34.60630000     -68.82390000
C      -47.27270000     -32.46000000     -69.85620000
C      -48.56490000     -32.46490000     -69.48390000
S      -46.55730000     -36.02480000     -68.27250000
S      -49.00350000     -33.95920000     -68.58880000
H      -49.30820000     -31.58100000     -69.57600000
