40
Properties=species:S:1:pos:R:3 #=T CELL(abcABC):=T 1.889726e+02=T 90.00000=T Traj:=T positionsangstrom=T Step:=T 0=T Bead:=T pbc="F F F"
C      -45.99550000     -33.68460000     -74.23230000
C      -45.08280000     -32.58570000     -74.22910000
C      -43.71160000     -32.77940000     -73.97810000
C      -43.25690000     -34.06380000     -73.63660000
C      -44.11980000     -35.17870000     -73.63500000
C      -45.48230000     -34.97830000     -73.89550000
H      -47.05450000     -33.58090000     -74.52560000
H      -43.09500000     -31.91650000     -73.80340000
H      -43.88470000     -36.27780000     -73.35600000
H      -46.12720000     -35.83550000     -73.72550000
C      -41.79610000     -34.26290000     -73.39660000
H      -41.08270000     -33.66850000     -74.09050000
H      -41.46510000     -35.28050000     -73.62420000
C      -45.39850000     -31.14270000     -74.70670000
H      -44.44120000     -30.78570000     -75.19240000
H      -46.25250000     -31.19710000     -75.35980000
S      -41.39240000     -33.87000000     -71.65250000
S      -45.71520000     -30.01840000     -73.20950000
C      -42.75470000     -34.72520000     -70.73560000
H      -42.95360000     -35.75590000     -71.14240000
H      -42.25010000     -34.95790000     -69.79250000
C      -46.86640000     -31.08920000     -72.22140000
H      -47.13010000     -31.99720000     -72.68910000
H      -47.77370000     -30.50940000     -71.93760000
C      -46.24950000     -31.32960000     -70.83930000
H      -45.20100000     -31.53030000     -70.96300000
H      -46.33290000     -30.41350000     -70.24690000
C      -43.98140000     -33.81860000     -70.54310000
H      -44.55420000     -33.69610000     -71.49310000
H      -43.61010000     -32.79810000     -70.24500000
C      -45.12420000     -34.34440000     -69.65510000
C      -45.08990000     -35.54210000     -68.96930000
C      -46.34010000     -33.64260000     -69.53230000
H      -44.18590000     -36.10180000     -68.81360000
C      -47.20220000     -34.38180000     -68.75190000
C      -46.91230000     -32.37220000     -69.95360000
C      -48.20180000     -32.20610000     -69.43310000
S      -46.45260000     -35.79260000     -67.97320000
S      -48.69540000     -33.47500000     -68.46280000
H      -48.84960000     -31.37100000     -69.57830000
