40
Properties=species:S:1:pos:R:3 #=T CELL(abcABC):=T 1.889726e+02=T 90.00000=T Traj:=T positionsangstrom=T Step:=T 0=T Bead:=T pbc="F F F"
C      -45.24380000     -30.12980000     -68.52470000
C      -44.30610000     -31.04850000     -68.89720000
C      -44.39080000     -32.38110000     -68.57710000
C      -45.51450000     -32.84810000     -67.88940000
C      -46.62120000     -31.94310000     -67.76160000
C      -46.44700000     -30.57540000     -67.99450000
H      -45.14110000     -29.09740000     -68.80070000
H      -43.67740000     -33.01820000     -69.03060000
H      -47.38760000     -32.32210000     -67.04680000
H      -47.22360000     -29.83660000     -67.75440000
C      -45.71900000     -34.29910000     -67.46000000
H      -46.73230000     -34.57260000     -67.55690000
H      -45.63870000     -34.40870000     -66.33770000
C      -43.10760000     -30.64250000     -69.71830000
H      -42.50170000     -29.74050000     -69.39200000
H      -42.40270000     -31.47460000     -69.83460000
S      -44.66600000     -35.53510000     -68.27870000
S      -43.58650000     -29.96720000     -71.44830000
C      -45.44020000     -35.74110000     -69.91600000
H      -45.86230000     -36.72340000     -69.90810000
H      -46.27690000     -35.04790000     -69.90200000
C      -44.00740000     -31.56270000     -72.22950000
H      -43.38400000     -32.43610000     -71.86770000
H      -43.79530000     -31.51270000     -73.28250000
C      -45.41930000     -32.15330000     -71.91740000
H      -45.34500000     -32.72370000     -71.01960000
H      -46.18230000     -31.42180000     -71.66200000
C      -44.46740000     -35.54710000     -71.07350000
H      -43.86690000     -36.37180000     -71.16180000
H      -43.84950000     -34.64190000     -70.93750000
C      -45.24740000     -35.54320000     -72.42420000
C      -45.34310000     -36.77900000     -73.15110000
C      -45.81350000     -34.41180000     -73.19780000
H      -44.98330000     -37.73490000     -72.66530000
C      -46.26540000     -34.84040000     -74.42470000
C      -45.91440000     -32.98580000     -73.10770000
C      -46.40970000     -32.43410000     -74.23480000
S      -46.20710000     -36.54440000     -74.68290000
S      -46.86620000     -33.55660000     -75.52010000
H      -46.41490000     -31.34570000     -74.28610000
