40
Properties=species:S:1:pos:R:3 #=T CELL(abcABC):=T 1.889726e+02=T 90.00000=T Traj:=T positionsangstrom=T Step:=T 0=T Bead:=T pbc="F F F"
C      -45.91460000     -33.79180000     -74.33720000
C      -45.07130000     -32.62020000     -74.31560000
C      -43.71870000     -32.68400000     -73.98540000
C      -43.17020000     -33.95670000     -73.68270000
C      -43.96700000     -35.11030000     -73.74400000
C      -45.31290000     -34.99660000     -74.10630000
H      -46.91280000     -33.70970000     -74.69900000
H      -43.09260000     -31.89180000     -74.12540000
H      -43.53780000     -36.08570000     -73.64290000
H      -45.80070000     -35.97720000     -74.23970000
C      -41.69710000     -34.21130000     -73.28350000
H      -41.14930000     -33.54380000     -73.94310000
H      -41.41970000     -35.25070000     -73.47300000
C      -45.69630000     -31.26440000     -74.71240000
H      -45.01710000     -30.75280000     -75.40780000
H      -46.67300000     -31.28870000     -75.21170000
S      -41.29600000     -33.84160000     -71.48390000
S      -45.84920000     -30.11770000     -73.29170000
C      -42.70880000     -34.63760000     -70.58550000
H      -43.03150000     -35.56110000     -71.14370000
H      -42.33810000     -34.95620000     -69.68590000
C      -46.81340000     -31.20830000     -72.07950000
H      -46.63950000     -32.22930000     -72.43080000
H      -47.85490000     -30.92100000     -72.28240000
C      -46.28390000     -31.26700000     -70.67900000
H      -45.24290000     -31.61330000     -70.68690000
H      -46.34900000     -30.28170000     -70.18920000
C      -43.84700000     -33.57480000     -70.32710000
H      -44.19460000     -33.22830000     -71.31910000
H      -43.47910000     -32.65920000     -69.85400000
C      -45.06090000     -34.20520000     -69.60200000
C      -44.99740000     -35.45150000     -69.07770000
C      -46.35270000     -33.55670000     -69.41060000
H      -44.06510000     -36.00130000     -68.97440000
C      -47.21430000     -34.35480000     -68.68590000
C      -47.01190000     -32.31260000     -69.87820000
C      -48.32820000     -32.16980000     -69.48510000
S      -46.51020000     -35.85920000     -68.22670000
S      -48.76500000     -33.63130000     -68.42480000
H      -48.96020000     -31.36430000     -69.53470000
