40
Properties=species:S:1:pos:R:3 #=T CELL(abcABC):=T 1.889726e+02=T 90.00000=T Traj:=T positionsangstrom=T Step:=T 0=T Bead:=T pbc="F F F"
C      -44.53190000     -29.40970000     -69.57630000
C      -43.67580000     -30.41750000     -69.89930000
C      -43.65710000     -31.70330000     -69.24870000
C      -44.69560000     -31.94000000     -68.32070000
C      -45.60740000     -30.93600000     -67.96330000
C      -45.41620000     -29.64670000     -68.46400000
H      -44.37860000     -28.54100000     -70.23420000
H      -42.94840000     -32.46300000     -69.50470000
H      -46.36090000     -31.17760000     -67.11020000
H      -46.01490000     -28.79530000     -68.05510000
C      -44.89850000     -33.27620000     -67.72990000
H      -45.88830000     -33.76140000     -67.94040000
H      -44.86560000     -33.23930000     -66.61700000
C      -42.73260000     -30.28250000     -71.09400000
H      -42.44350000     -29.27320000     -71.18640000
H      -41.80750000     -30.88420000     -70.94430000
S      -43.72830000     -34.70750000     -68.15900000
S      -43.34760000     -30.62470000     -72.82520000
C      -44.80820000     -35.58170000     -69.42840000
H      -44.28610000     -36.45650000     -69.63070000
H      -45.77010000     -35.81400000     -68.98790000
C      -44.15910000     -32.25030000     -72.87260000
H      -43.55990000     -32.98710000     -72.33970000
H      -44.14050000     -32.48960000     -73.90530000
C      -45.66230000     -32.23780000     -72.46550000
H      -45.72970000     -32.33190000     -71.40100000
H      -46.05330000     -31.25760000     -72.62660000
C      -44.89070000     -34.86630000     -70.69940000
H      -43.92720000     -34.85430000     -71.25420000
H      -45.17070000     -33.78110000     -70.68850000
C      -45.87850000     -35.49640000     -71.56930000
C      -46.26650000     -36.82560000     -71.55580000
C      -46.38190000     -34.71630000     -72.71680000
H      -45.99730000     -37.61390000     -70.79480000
C      -47.20860000     -35.56660000     -73.50280000
C      -46.36850000     -33.39250000     -73.24270000
C      -46.98470000     -33.22920000     -74.42280000
S      -47.40730000     -37.17060000     -72.90100000
S      -47.66930000     -34.83370000     -75.01340000
H      -47.10890000     -32.32870000     -74.94900000
