40
Properties=species:S:1:pos:R:3 #=T CELL(abcABC):=T 1.889726e+02=T 90.00000=T Traj:=T positionsangstrom=T Step:=T 0=T Bead:=T pbc="F F F"
C      -46.32360000     -33.37260000     -73.99030000
C      -45.17920000     -32.49830000     -74.15290000
C      -43.88860000     -33.05800000     -74.02470000
C      -43.64360000     -34.36380000     -73.60920000
C      -44.75100000     -35.24580000     -73.52670000
C      -46.03490000     -34.77390000     -73.69670000
H      -47.27180000     -32.87030000     -73.90260000
H      -43.09770000     -32.49020000     -74.30620000
H      -44.49040000     -36.20380000     -73.03040000
H      -46.88180000     -35.46390000     -73.44340000
C      -42.28260000     -34.92200000     -73.51650000
H      -41.51690000     -34.36030000     -74.13300000
H      -42.13330000     -35.90810000     -73.83610000
C      -45.44500000     -31.02700000     -74.51960000
H      -44.61700000     -30.69230000     -75.15610000
H      -46.27710000     -30.91870000     -75.12950000
S      -41.48300000     -35.01520000     -71.74550000
S      -45.37670000     -29.74970000     -73.24730000
C      -42.85720000     -35.27060000     -70.53340000
H      -43.41330000     -36.02520000     -70.92250000
H      -42.38950000     -35.39390000     -69.57590000
C      -46.47680000     -30.46780000     -71.90730000
H      -47.21240000     -31.12970000     -72.39580000
H      -47.08120000     -29.58440000     -71.67900000
C      -45.66100000     -31.19880000     -70.82410000
H      -44.87340000     -31.80440000     -71.26660000
H      -45.11590000     -30.51020000     -70.19090000
C      -43.71480000     -34.00890000     -70.45400000
H      -44.07370000     -33.61670000     -71.37050000
H      -43.19130000     -33.26600000     -69.97710000
C      -44.91980000     -34.20180000     -69.51510000
C      -45.05650000     -35.34920000     -68.84480000
C      -46.13830000     -33.42590000     -69.44870000
H      -44.31960000     -36.16440000     -68.93700000
C      -47.18250000     -34.10850000     -68.74920000
C      -46.46940000     -32.12940000     -69.92180000
C      -47.76720000     -31.75530000     -69.63250000
S      -46.66700000     -35.67250000     -68.12040000
S      -48.64450000     -33.08580000     -68.77620000
H      -48.27870000     -30.90910000     -70.11580000
