40
Properties=species:S:1:pos:R:3 #=T CELL(abcABC):=T 1.889726e+02=T 90.00000=T Traj:=T positionsangstrom=T Step:=T 0=T Bead:=T pbc="F F F"
C      -44.35030000     -30.00120000     -70.56910000
C      -43.20520000     -30.68060000     -71.01220000
C      -42.59510000     -31.53050000     -70.11240000
C      -43.24420000     -31.80400000     -68.88860000
C      -44.38370000     -31.06900000     -68.48640000
C      -44.93110000     -30.14910000     -69.35590000
H      -44.86930000     -29.39740000     -71.31930000
H      -41.77550000     -32.15320000     -70.51600000
H      -44.91670000     -31.31250000     -67.54580000
H      -45.71380000     -29.46970000     -69.05120000
C      -42.59440000     -32.87660000     -68.06610000
H      -42.36700000     -32.55620000     -66.98840000
H      -41.55210000     -32.91790000     -68.51320000
C      -42.69630000     -30.36900000     -72.36610000
H      -42.32370000     -29.35990000     -72.38820000
H      -41.98760000     -31.05490000     -72.56870000
S      -43.41500000     -34.55400000     -68.01850000
S      -44.08170000     -30.44320000     -73.59690000
C      -44.96850000     -34.36990000     -69.01330000
H      -45.58220000     -35.24510000     -68.65080000
H      -45.44570000     -33.46740000     -68.66350000
C      -44.80600000     -32.15760000     -73.44820000
H      -44.12340000     -32.83210000     -72.91930000
H      -44.88810000     -32.55270000     -74.46400000
C      -46.23320000     -32.29410000     -72.88080000
H      -46.21780000     -32.10800000     -71.84600000
H      -46.86130000     -31.58230000     -73.43200000
C      -44.73660000     -34.45000000     -70.52170000
H      -43.80810000     -34.90050000     -70.84360000
H      -44.50810000     -33.44750000     -70.89050000
C      -45.89420000     -35.20460000     -71.20930000
C      -46.25420000     -36.44980000     -70.72200000
C      -46.80140000     -34.76190000     -72.23610000
H      -45.68390000     -37.21780000     -70.16850000
C      -47.75120000     -35.76280000     -72.57380000
C      -46.86120000     -33.64090000     -73.11420000
C      -47.76770000     -33.86900000     -74.12700000
S      -47.65270000     -37.16910000     -71.52700000
S      -48.58940000     -35.40230000     -74.05180000
H      -48.04250000     -33.07590000     -74.78820000
