40
Properties=species:S:1:pos:R:3 #=T CELL(abcABC):=T 1.889726e+02=T 90.00000=T Traj:=T positionsangstrom=T Step:=T 0=T Bead:=T pbc="F F F"
C      -46.72830000     -32.32160000     -73.19930000
C      -45.41320000     -32.61380000     -73.48780000
C      -44.98560000     -33.96540000     -73.27760000
C      -45.87550000     -34.91340000     -72.86080000
C      -47.21670000     -34.59470000     -72.54890000
C      -47.60180000     -33.25750000     -72.69870000
H      -46.97930000     -31.23530000     -72.96000000
H      -43.91300000     -34.17110000     -73.46840000
H      -47.89270000     -35.40120000     -72.21960000
H      -48.59290000     -32.88300000     -72.41730000
C      -45.42490000     -36.34390000     -72.68080000
H      -45.50470000     -36.97370000     -73.63490000
H      -45.99510000     -36.86440000     -71.85940000
C      -44.46440000     -31.61840000     -74.02130000
H      -44.28130000     -31.90660000     -75.03470000
H      -45.02630000     -30.67890000     -74.21450000
S      -43.64210000     -36.55350000     -72.25390000
S      -42.76120000     -31.32580000     -73.17870000
C      -43.55940000     -36.41780000     -70.41980000
H      -44.39100000     -37.05010000     -70.00060000
H      -42.51320000     -36.77160000     -70.06670000
C      -43.15660000     -30.40350000     -71.54900000
H      -43.93450000     -29.72540000     -71.74600000
H      -42.33280000     -29.76370000     -71.31790000
C      -43.46270000     -31.42590000     -70.44220000
H      -42.93430000     -32.34970000     -70.61970000
H      -42.98490000     -31.03720000     -69.46030000
C      -43.64460000     -34.93810000     -69.99730000
H      -43.06660000     -34.31970000     -70.75230000
H      -43.28720000     -34.79780000     -68.92410000
C      -45.06560000     -34.38990000     -69.82740000
C      -46.05170000     -35.23420000     -69.46600000
C      -45.49850000     -32.94190000     -69.78250000
H      -46.05900000     -36.31530000     -69.29430000
C      -46.85820000     -32.89580000     -69.44220000
C      -44.95670000     -31.61970000     -70.14740000
C      -45.95790000     -30.66200000     -70.09570000
S      -47.49630000     -34.44610000     -68.99770000
S      -47.49400000     -31.28840000     -69.65210000
H      -45.90150000     -29.57860000     -70.26960000
