40
Properties=species:S:1:pos:R:3 #=T CELL(abcABC):=T 1.889726e+02=T 90.00000=T Traj:=T positionsangstrom=T Step:=T 0=T Bead:=T pbc="F F F"
C      -44.53560000     -29.75910000     -70.71300000
C      -43.75070000     -30.50550000     -71.62660000
C      -42.86690000     -31.43660000     -71.11780000
C      -42.84870000     -31.71180000     -69.74500000
C      -43.59720000     -30.94310000     -68.84330000
C      -44.36130000     -29.91920000     -69.35560000
H      -45.14520000     -28.91790000     -71.02710000
H      -42.23310000     -32.11920000     -71.74310000
H      -43.65910000     -31.09980000     -67.74780000
H      -45.06490000     -29.35060000     -68.68960000
C      -41.94800000     -32.84840000     -69.31370000
H      -41.20550000     -32.46000000     -68.59090000
H      -41.39830000     -33.15730000     -70.20090000
C      -43.76830000     -30.04170000     -73.07490000
H      -44.52320000     -29.35070000     -73.13770000
H      -42.84040000     -29.49290000     -73.23540000
S      -42.88740000     -34.04400000     -68.28230000
S      -44.07450000     -31.28020000     -74.44500000
C      -44.49670000     -34.27420000     -69.16420000
H      -45.11820000     -34.91090000     -68.50890000
H      -44.95120000     -33.29630000     -69.42060000
C      -45.07950000     -32.65110000     -73.70790000
H      -44.38810000     -33.48190000     -73.40160000
H      -45.49110000     -33.11830000     -74.57570000
C      -46.04710000     -32.40090000     -72.48080000
H      -45.57190000     -32.42200000     -71.49370000
H      -46.61420000     -31.50940000     -72.43930000
C      -44.37000000     -34.94790000     -70.63430000
H      -43.60980000     -35.76490000     -70.68250000
H      -44.01620000     -34.25630000     -71.42150000
C      -45.72470000     -35.52760000     -70.99880000
C      -46.09290000     -36.84450000     -70.67110000
C      -46.82120000     -34.80280000     -71.62010000
H      -45.46570000     -37.51130000     -70.06990000
C      -47.96280000     -35.65920000     -71.70160000
C      -47.02450000     -33.53090000     -72.41200000
C      -48.19460000     -33.62780000     -73.15970000
S      -47.78900000     -37.16690000     -70.94910000
S      -49.22640000     -35.06490000     -72.76200000
H      -48.73900000     -32.92170000     -73.70810000
