40
Properties=species:S:1:pos:R:3 #=T CELL(abcABC):=T 1.889726e+02=T 90.00000=T Traj:=T positionsangstrom=T Step:=T 0=T Bead:=T pbc="F F F"
C      -46.81630000     -32.30640000     -73.07800000
C      -45.42890000     -32.54740000     -73.30410000
C      -44.86570000     -33.81590000     -73.40620000
C      -45.76130000     -34.87320000     -73.11410000
C      -47.11460000     -34.62900000     -72.96140000
C      -47.63810000     -33.37450000     -72.92170000
H      -47.11920000     -31.27520000     -73.25940000
H      -43.85880000     -34.09090000     -73.85760000
H      -47.83080000     -35.38660000     -72.74610000
H      -48.70150000     -33.26240000     -72.82010000
C      -45.28760000     -36.28020000     -73.27350000
H      -45.14380000     -36.39610000     -74.35000000
H      -46.07120000     -37.02700000     -72.94310000
C      -44.58300000     -31.35450000     -73.64380000
H      -44.49780000     -31.29380000     -74.71320000
H      -45.09430000     -30.49860000     -73.11530000
S      -43.57800000     -36.65500000     -72.38020000
S      -42.84300000     -31.33590000     -73.15090000
C      -43.99960000     -36.58800000     -70.57660000
H      -44.94460000     -36.96920000     -70.27520000
H      -43.26760000     -37.23940000     -70.02900000
C      -42.92620000     -30.72790000     -71.36230000
H      -43.54640000     -29.79980000     -71.39320000
H      -41.87710000     -30.49810000     -71.09280000
C      -43.31180000     -31.87170000     -70.46850000
H      -42.91270000     -32.71690000     -70.90330000
H      -42.70830000     -31.80110000     -69.52640000
C      -43.91890000     -35.15110000     -69.99290000
H      -43.33130000     -34.50260000     -70.66450000
H      -43.44260000     -35.12080000     -68.99060000
C      -45.29280000     -34.47830000     -69.69160000
C      -46.36150000     -35.17830000     -69.20790000
C      -45.54180000     -33.06150000     -69.80450000
H      -46.39690000     -36.24510000     -69.05510000
C      -46.84210000     -32.76840000     -69.45080000
C      -44.78090000     -31.85520000     -70.09920000
C      -45.51600000     -30.66620000     -69.82250000
S      -47.76390000     -34.12690000     -69.00170000
S      -47.17570000     -31.07140000     -69.41960000
H      -45.12070000     -29.64720000     -69.86170000
