40
Properties=species:S:1:pos:R:3 #=T CELL(abcABC):=T 1.889726e+02=T 90.00000=T Traj:=T positionsangstrom=T Step:=T 0=T Bead:=T pbc="F F F"
C      -46.56330000     -31.81360000     -73.21790000
C      -45.25740000     -32.43040000     -73.31060000
C      -45.22330000     -33.86410000     -73.20500000
C      -46.35030000     -34.59450000     -72.82000000
C      -47.55990000     -33.89660000     -72.64330000
C      -47.69640000     -32.49850000     -72.86290000
H      -46.53410000     -30.72280000     -73.31900000
H      -44.33670000     -34.45430000     -73.38530000
H      -48.59130000     -34.38440000     -72.44950000
H      -48.66820000     -32.01160000     -72.79120000
C      -46.43800000     -36.10120000     -72.70760000
H      -46.40810000     -36.43090000     -73.73130000
H      -47.33640000     -36.45180000     -72.16700000
C      -44.13400000     -31.51600000     -73.59230000
H      -44.06830000     -31.19210000     -74.61270000
H      -44.15060000     -30.52010000     -73.10510000
S      -44.80650000     -36.87020000     -72.13280000
S      -42.47420000     -32.39230000     -73.42050000
C      -44.90250000     -36.82460000     -70.30410000
H      -45.97570000     -36.97680000     -70.04460000
H      -44.33910000     -37.72730000     -69.91800000
C      -41.99360000     -31.84820000     -71.69180000
H      -42.33050000     -30.79560000     -71.61370000
H      -40.84980000     -31.89280000     -71.52130000
C      -42.65580000     -32.69140000     -70.57190000
H      -42.60990000     -33.74940000     -70.78440000
H      -42.08810000     -32.55450000     -69.62630000
C      -44.44060000     -35.54050000     -69.51680000
H      -43.43750000     -35.29550000     -69.97960000
H      -44.16270000     -35.92410000     -68.58170000
C      -45.41440000     -34.44490000     -69.38260000
C      -46.73640000     -34.69120000     -69.07400000
C      -45.25530000     -33.04110000     -69.69010000
H      -47.14490000     -35.64750000     -68.70630000
C      -46.46690000     -32.29970000     -69.52580000
C      -44.15020000     -32.20490000     -70.19750000
C      -44.58550000     -30.88610000     -70.33290000
S      -47.82690000     -33.35240000     -69.18150000
S      -46.27720000     -30.60640000     -69.87120000
H      -44.01110000     -30.06680000     -70.73370000
