40
Properties=species:S:1:pos:R:3 #=T CELL(abcABC):=T 1.889726e+02=T 90.00000=T Traj:=T positionsangstrom=T Step:=T 0=T Bead:=T pbc="F F F"
C      -46.85900000     -32.18340000     -73.20950000
C      -45.47020000     -32.40350000     -73.35080000
C      -44.98190000     -33.68720000     -73.23930000
C      -45.83710000     -34.78450000     -73.10890000
C      -47.21300000     -34.58200000     -72.86160000
C      -47.73350000     -33.26390000     -72.89890000
H      -47.27740000     -31.19250000     -73.24920000
H      -43.96080000     -33.78400000     -73.18450000
H      -47.70810000     -35.54710000     -72.62970000
H      -48.75560000     -33.02270000     -72.54790000
C      -45.46470000     -36.20520000     -73.24720000
H      -45.32010000     -36.47220000     -74.25350000
H      -46.21430000     -36.84290000     -72.91160000
C      -44.53020000     -31.26910000     -73.45620000
H      -44.55640000     -30.87810000     -74.48060000
H      -44.91360000     -30.48110000     -72.84020000
S      -43.83360000     -36.79370000     -72.43600000
S      -42.73460000     -31.43280000     -73.03320000
C      -44.11370000     -36.75480000     -70.61410000
H      -45.09790000     -37.16000000     -70.43410000
H      -43.44470000     -37.44420000     -70.16800000
C      -42.63140000     -30.81550000     -71.33460000
H      -43.14470000     -29.87760000     -71.16420000
H      -41.55590000     -30.60210000     -71.23440000
C      -43.18280000     -31.91030000     -70.33370000
H      -42.96390000     -32.95890000     -70.71560000
H      -42.56180000     -31.87950000     -69.43970000
C      -43.96080000     -35.35040000     -69.90520000
H      -43.20660000     -34.83760000     -70.47480000
H      -43.53890000     -35.36900000     -68.90590000
C      -45.24650000     -34.54240000     -69.72090000
C      -46.36510000     -35.09790000     -69.29100000
C      -45.46560000     -33.06660000     -69.79690000
H      -46.48240000     -36.16550000     -69.18610000
C      -46.77700000     -32.71330000     -69.49100000
C      -44.65880000     -31.91200000     -70.11050000
C      -45.37510000     -30.73880000     -70.00600000
S      -47.72200000     -34.02730000     -68.99930000
S      -47.12010000     -31.01210000     -69.60590000
H      -45.02320000     -29.75760000     -70.31640000
