40
Properties=species:S:1:pos:R:3 #=T CELL(abcABC):=T 1.889726e+02=T 90.00000=T Traj:=T positionsangstrom=T Step:=T 0=T Bead:=T pbc="F F F"
C      -46.82420000     -32.27130000     -73.18470000
C      -45.43460000     -32.50610000     -73.32520000
C      -44.87970000     -33.78060000     -73.31620000
C      -45.79910000     -34.87200000     -73.23030000
C      -47.18080000     -34.62000000     -73.00270000
C      -47.73840000     -33.33990000     -73.01180000
H      -47.14350000     -31.22210000     -72.99510000
H      -43.79620000     -33.94120000     -73.36860000
H      -47.75800000     -35.48880000     -72.92750000
H      -48.81010000     -33.17660000     -72.84400000
C      -45.27640000     -36.31050000     -73.15470000
H      -45.18220000     -36.74810000     -74.14050000
H      -46.14900000     -36.91330000     -72.61660000
C      -44.63860000     -31.27420000     -73.64820000
H      -44.61000000     -31.19420000     -74.78420000
H      -45.15420000     -30.38100000     -73.32660000
S      -43.72630000     -36.71610000     -72.37320000
S      -42.76790000     -31.26200000     -73.14740000
C      -44.09140000     -36.52230000     -70.61190000
H      -45.03920000     -37.08360000     -70.37920000
H      -43.27070000     -37.13310000     -70.23950000
C      -42.69620000     -30.80360000     -71.27190000
H      -43.33610000     -29.89390000     -71.02210000
H      -41.69300000     -30.51560000     -71.12450000
C      -43.19980000     -31.86410000     -70.27710000
H      -42.74910000     -32.82860000     -70.44420000
H      -42.95100000     -31.49740000     -69.26670000
C      -43.97310000     -35.11050000     -70.02860000
H      -43.46670000     -34.48130000     -70.67420000
H      -43.27280000     -35.30470000     -69.15350000
C      -45.27910000     -34.51650000     -69.61140000
C      -46.39720000     -35.17700000     -69.29420000
C      -45.48730000     -33.10720000     -69.62890000
H      -46.49990000     -36.26220000     -69.32160000
C      -46.81210000     -32.77530000     -69.35000000
C      -44.72560000     -31.96110000     -70.07650000
C      -45.45260000     -30.77120000     -70.00930000
S      -47.78490000     -34.15830000     -68.93590000
S      -47.11720000     -31.02860000     -69.57510000
H      -45.04900000     -29.80470000     -70.18930000
