40
Properties=species:S:1:pos:R:3 #=T CELL(abcABC):=T 1.889726e+02=T 90.00000=T Traj:=T positionsangstrom=T Step:=T 0=T Bead:=T pbc="F F F"
C      -46.73280000     -32.01380000     -72.88860000
C      -45.45000000     -32.45480000     -73.11120000
C      -45.20240000     -33.85000000     -73.17660000
C      -46.21700000     -34.75300000     -72.85410000
C      -47.52960000     -34.29440000     -72.62780000
C      -47.78680000     -32.92030000     -72.62240000
H      -46.87300000     -30.91900000     -72.77500000
H      -44.11910000     -34.08740000     -73.31900000
H      -48.35620000     -35.01330000     -72.41050000
H      -48.80230000     -32.58880000     -72.46000000
C      -45.91440000     -36.18350000     -72.79080000
H      -46.06360000     -36.68920000     -73.70530000
H      -46.52360000     -36.71670000     -72.07090000
C      -44.49880000     -31.39850000     -73.59880000
H      -44.57040000     -31.25680000     -74.69670000
H      -44.75080000     -30.41130000     -73.26730000
S      -44.10670000     -36.57630000     -72.42950000
S      -42.67200000     -31.75200000     -73.24620000
C      -44.12040000     -36.69510000     -70.62010000
H      -45.06960000     -37.04830000     -70.37090000
H      -43.33150000     -37.40790000     -70.25440000
C      -42.40610000     -31.23940000     -71.44170000
H      -42.70410000     -30.20630000     -71.31190000
H      -41.35670000     -31.16250000     -71.39780000
C      -42.97430000     -32.19890000     -70.47680000
H      -42.77780000     -33.15200000     -70.93010000
H      -42.40620000     -32.10250000     -69.55800000
C      -43.93530000     -35.39070000     -69.80130000
H      -43.02070000     -34.72270000     -70.03090000
H      -43.85870000     -35.77130000     -68.81820000
C      -45.25070000     -34.52320000     -69.82000000
C      -46.42270000     -35.12890000     -69.44200000
C      -45.37340000     -33.10870000     -69.83790000
H      -46.75660000     -36.14770000     -69.36400000
C      -46.63350000     -32.64300000     -69.49310000
C      -44.46120000     -31.99220000     -70.11360000
C      -45.13990000     -30.74560000     -70.06670000
S      -47.73140000     -33.92950000     -69.22870000
S      -46.82100000     -30.88330000     -69.64860000
H      -44.72360000     -29.81740000     -70.39010000
