40
Properties=species:S:1:pos:R:3 #=T CELL(abcABC):=T 1.889726e+02=T 90.00000=T Traj:=T positionsangstrom=T Step:=T 0=T Bead:=T pbc="F F F"
C      -46.86340000     -31.88990000     -73.05950000
C      -45.50280000     -32.33340000     -73.25080000
C      -45.23410000     -33.69030000     -73.11770000
C      -46.24630000     -34.61050000     -72.83920000
C      -47.54580000     -34.15180000     -72.57510000
C      -47.84990000     -32.82420000     -72.76310000
H      -47.04400000     -30.81310000     -73.25300000
H      -44.17990000     -34.00430000     -73.29120000
H      -48.30440000     -34.76370000     -72.23190000
H      -48.86650000     -32.47540000     -72.49100000
C      -45.98750000     -36.08490000     -72.78370000
H      -46.13730000     -36.56840000     -73.76730000
H      -46.72880000     -36.62340000     -72.09640000
C      -44.38920000     -31.37000000     -73.62170000
H      -44.41320000     -31.22320000     -74.71320000
H      -44.50090000     -30.45470000     -73.04250000
S      -44.29430000     -36.69770000     -72.39540000
S      -42.66140000     -31.88880000     -73.27140000
C      -44.31610000     -36.80890000     -70.56060000
H      -45.26000000     -37.32780000     -70.18660000
H      -43.44760000     -37.48030000     -70.38030000
C      -42.31090000     -31.21750000     -71.49510000
H      -42.80040000     -30.18020000     -71.45220000
H      -41.19630000     -31.15500000     -71.34680000
C      -42.79450000     -32.20850000     -70.40620000
H      -42.52560000     -33.20590000     -70.79340000
H      -42.21460000     -32.08220000     -69.47360000
C      -44.03530000     -35.50370000     -69.78520000
H      -43.12560000     -35.08650000     -70.18350000
H      -43.72690000     -35.79140000     -68.74530000
C      -45.29530000     -34.63280000     -69.67030000
C      -46.54450000     -35.05950000     -69.23950000
C      -45.30300000     -33.21920000     -69.86030000
H      -46.86230000     -36.08060000     -69.04690000
C      -46.55630000     -32.64170000     -69.61670000
C      -44.28320000     -32.12980000     -70.15460000
C      -44.89460000     -30.85590000     -70.03040000
S      -47.78510000     -33.80060000     -69.20540000
S      -46.63980000     -30.86600000     -69.68010000
H      -44.31240000     -29.93760000     -70.10430000
