40
Properties=species:S:1:pos:R:3 #=T CELL(abcABC):=T 1.889726e+02=T 90.00000=T Traj:=T positionsangstrom=T Step:=T 0=T Bead:=T pbc="F F F"
C      -46.21430000     -31.86560000     -73.02410000
C      -45.05080000     -32.61570000     -73.37830000
C      -45.11730000     -33.99610000     -73.50300000
C      -46.33800000     -34.70350000     -73.19550000
C      -47.48530000     -33.97620000     -72.97210000
C      -47.44910000     -32.51150000     -72.88620000
H      -46.26480000     -30.80880000     -73.02890000
H      -44.20060000     -34.58450000     -73.65170000
H      -48.45940000     -34.37900000     -72.84060000
H      -48.35730000     -31.88790000     -72.69710000
C      -46.43450000     -36.19850000     -73.18900000
H      -46.19180000     -36.67690000     -74.16500000
H      -47.44220000     -36.55850000     -72.93340000
C      -43.73760000     -31.93650000     -73.66650000
H      -43.74940000     -31.67130000     -74.73680000
H      -43.62140000     -30.95510000     -73.06070000
S      -45.18770000     -36.93570000     -71.95640000
S      -42.18840000     -32.82550000     -73.31120000
C      -46.07390000     -36.63570000     -70.30340000
H      -47.13390000     -36.29580000     -70.51740000
H      -46.21890000     -37.60450000     -69.85170000
C      -41.89320000     -32.76760000     -71.49030000
H      -41.68080000     -31.73200000     -71.16600000
H      -40.97200000     -33.37710000     -71.26840000
C      -42.94500000     -33.32910000     -70.50140000
H      -43.38310000     -34.28290000     -70.88200000
H      -42.30950000     -33.53060000     -69.61050000
C      -45.35670000     -35.66540000     -69.38880000
H      -44.33420000     -35.68660000     -69.62980000
H      -45.39250000     -35.88720000     -68.30130000
C      -45.90790000     -34.21600000     -69.28130000
C      -47.25280000     -34.08640000     -68.91060000
C      -45.33760000     -32.91310000     -69.66300000
H      -47.91900000     -34.91680000     -68.72330000
C      -46.25960000     -31.87580000     -69.58180000
C      -44.05070000     -32.40050000     -70.14970000
C      -44.06280000     -31.00990000     -70.38840000
S      -47.78850000     -32.41160000     -68.98510000
S      -45.67100000     -30.34150000     -70.02320000
H      -43.26120000     -30.39510000     -70.65800000
