40
Properties=species:S:1:pos:R:3 #=T CELL(abcABC):=T 1.889726e+02=T 90.00000=T Traj:=T positionsangstrom=T Step:=T 0=T Bead:=T pbc="F F F"
C      -46.00370000     -31.82150000     -73.38020000
C      -44.86020000     -32.70790000     -73.34740000
C      -45.08010000     -34.09640000     -73.30820000
C      -46.41180000     -34.67560000     -73.19790000
C      -47.45970000     -33.76370000     -73.14850000
C      -47.31950000     -32.32560000     -73.25990000
H      -45.94580000     -30.69910000     -73.44610000
H      -44.20400000     -34.75290000     -73.35650000
H      -48.50400000     -34.13690000     -73.01180000
H      -48.25740000     -31.76410000     -73.22180000
C      -46.66170000     -36.15150000     -73.16040000
H      -46.38390000     -36.60930000     -74.12610000
H      -47.71890000     -36.42830000     -73.05790000
C      -43.48410000     -32.12310000     -73.54110000
H      -43.34940000     -31.84630000     -74.57270000
H      -43.29250000     -31.24630000     -72.98530000
S      -45.55540000     -36.98880000     -71.93790000
S      -42.04740000     -33.23130000     -73.06810000
C      -46.10410000     -36.56060000     -70.21610000
H      -47.19680000     -36.58540000     -70.22240000
H      -45.90960000     -37.54400000     -69.77160000
C      -41.75440000     -32.64550000     -71.34300000
H      -41.71300000     -31.55190000     -71.27330000
H      -40.82150000     -33.09550000     -71.02550000
C      -42.87870000     -33.27040000     -70.42660000
H      -43.13970000     -34.24460000     -70.78600000
H      -42.35170000     -33.45820000     -69.47780000
C      -45.27900000     -35.49840000     -69.57260000
H      -44.38150000     -35.48120000     -70.11450000
H      -45.09900000     -35.86920000     -68.61500000
C      -46.04540000     -34.11980000     -69.60000000
C      -47.41420000     -33.98470000     -69.48630000
C      -45.35950000     -32.89560000     -69.70420000
H      -48.15630000     -34.76810000     -69.49730000
C      -46.25310000     -31.81590000     -69.42380000
C      -44.12710000     -32.42910000     -70.24260000
C      -44.03700000     -31.05710000     -70.15230000
S      -47.88110000     -32.36290000     -69.18480000
S      -45.55520000     -30.23680000     -69.65280000
H      -43.16230000     -30.49880000     -70.55180000
