40
Properties=species:S:1:pos:R:3 #=T CELL(abcABC):=T 1.889726e+02=T 90.00000=T Traj:=T positionsangstrom=T Step:=T 0=T Bead:=T pbc="F F F"
C      -46.21000000     -31.79470000     -73.18080000
C      -45.01380000     -32.54280000     -73.60110000
C      -45.08960000     -33.91560000     -73.61120000
C      -46.18750000     -34.57030000     -73.03270000
C      -47.27320000     -33.84270000     -72.60460000
C      -47.26490000     -32.44370000     -72.65430000
H      -46.00610000     -30.73120000     -73.24520000
H      -44.18460000     -34.42260000     -73.91900000
H      -48.15090000     -34.39520000     -72.21370000
H      -48.12190000     -31.89650000     -72.29000000
C      -46.25830000     -36.04450000     -72.98850000
H      -46.07320000     -36.45290000     -73.99580000
H      -47.25250000     -36.34480000     -72.81100000
C      -43.73830000     -31.80350000     -73.98790000
H      -43.66840000     -31.71780000     -75.06020000
H      -43.85530000     -30.79140000     -73.50980000
S      -45.07360000     -36.89620000     -71.78060000
S      -42.14950000     -32.59720000     -73.51430000
C      -45.65560000     -36.77470000     -70.04580000
H      -46.75820000     -36.70820000     -69.96780000
H      -45.28910000     -37.74230000     -69.69150000
C      -42.01310000     -32.47610000     -71.64370000
H      -42.00480000     -31.43300000     -71.36320000
H      -41.01290000     -32.82460000     -71.43750000
C      -42.99620000     -33.30020000     -70.80850000
H      -43.36000000     -34.20240000     -71.28360000
H      -42.38290000     -33.58830000     -69.95360000
C      -45.10260000     -35.54370000     -69.28250000
H      -44.08180000     -35.28360000     -69.72210000
H      -44.87460000     -35.86850000     -68.27880000
C      -46.01320000     -34.36530000     -69.31920000
C      -47.28360000     -34.31620000     -68.84340000
C      -45.52290000     -33.08870000     -69.79260000
H      -47.88750000     -35.11510000     -68.40670000
C      -46.40490000     -32.06840000     -69.51240000
C      -44.26580000     -32.57380000     -70.33090000
C      -44.35680000     -31.20800000     -70.54430000
S      -47.99370000     -32.59280000     -68.93570000
S      -45.81230000     -30.47720000     -69.91700000
H      -43.54980000     -30.51590000     -70.94960000
