40
Properties=species:S:1:pos:R:3 #=T CELL(abcABC):=T 1.889726e+02=T 90.00000=T Traj:=T positionsangstrom=T Step:=T 0=T Bead:=T pbc="F F F"
C      -46.05200000     -31.82030000     -73.28260000
C      -44.95330000     -32.72430000     -73.34850000
C      -45.11900000     -34.11570000     -73.19470000
C      -46.36010000     -34.68640000     -73.11380000
C      -47.47220000     -33.81750000     -73.13310000
C      -47.29590000     -32.43000000     -73.23200000
H      -45.93110000     -30.78200000     -73.48620000
H      -44.32470000     -34.80910000     -73.19150000
H      -48.57570000     -34.22940000     -73.12780000
H      -48.22000000     -31.82400000     -73.26400000
C      -46.61100000     -36.20750000     -73.04660000
H      -46.61160000     -36.65950000     -74.06210000
H      -47.62170000     -36.46150000     -72.60850000
C      -43.57310000     -32.07140000     -73.52830000
H      -43.48810000     -31.78880000     -74.64230000
H      -43.56560000     -31.12280000     -72.92920000
S      -45.29180000     -37.10630000     -71.98170000
S      -42.14640000     -33.07900000     -73.18430000
C      -46.03980000     -36.70940000     -70.36690000
H      -47.07200000     -36.44940000     -70.44730000
H      -45.75130000     -37.50700000     -69.68150000
C      -41.79250000     -32.79390000     -71.38530000
H      -41.52420000     -31.70470000     -71.27500000
H      -40.83170000     -33.30780000     -71.17130000
C      -42.85960000     -33.25260000     -70.39020000
H      -43.22700000     -34.22810000     -70.68090000
H      -42.37570000     -33.37720000     -69.37420000
C      -45.36990000     -35.57780000     -69.55190000
H      -44.26600000     -35.48210000     -69.77310000
H      -45.37190000     -35.86040000     -68.45370000
C      -46.05240000     -34.11260000     -69.51720000
C      -47.37110000     -34.03950000     -69.12740000
C      -45.41260000     -32.82100000     -69.81380000
H      -47.93580000     -34.81960000     -68.65220000
C      -46.36330000     -31.80080000     -69.69220000
C      -44.05150000     -32.32430000     -70.17800000
C      -44.04090000     -30.97650000     -70.06810000
S      -47.86590000     -32.30070000     -69.08100000
S      -45.63030000     -30.19940000     -69.85990000
H      -43.16040000     -30.39890000     -70.35060000
