40
Properties=species:S:1:pos:R:3 #=T CELL(abcABC):=T 1.889726e+02=T 90.00000=T Traj:=T positionsangstrom=T Step:=T 0=T Bead:=T pbc="F F F"
C      -45.61020000     -28.79830000     -70.68030000
C      -44.73510000     -29.85350000     -70.84770000
C      -44.80800000     -30.58950000     -72.04980000
C      -45.78220000     -30.27170000     -72.98630000
C      -46.73320000     -29.20200000     -72.81880000
C      -46.50930000     -28.43870000     -71.65950000
H      -45.37430000     -28.11040000     -69.83670000
H      -44.17090000     -31.42480000     -72.40140000
H      -47.45120000     -28.86390000     -73.51760000
H      -47.07120000     -27.48730000     -71.65420000
C      -45.96470000     -31.08270000     -74.28490000
H      -45.03760000     -31.62750000     -74.47090000
H      -46.07060000     -30.39090000     -75.14810000
C      -43.55570000     -30.14230000     -69.90870000
H      -42.69440000     -30.54030000     -70.44860000
H      -43.24000000     -29.19900000     -69.51420000
S      -47.49690000     -32.16290000     -74.15020000
S      -44.01590000     -31.21490000     -68.31110000
C      -46.91600000     -33.43210000     -72.92380000
H      -46.95820000     -32.96400000     -71.92490000
H      -47.57300000     -34.30740000     -72.87650000
C      -43.89990000     -33.05230000     -68.76510000
H      -43.83600000     -33.59010000     -67.79680000
H      -42.95090000     -33.17560000     -69.34060000
C      -45.09460000     -33.57130000     -69.54850000
H      -46.06860000     -33.30540000     -69.17060000
H      -45.18640000     -33.01300000     -70.42660000
C      -45.42690000     -33.95170000     -72.98500000
H      -44.86640000     -33.26070000     -72.35200000
H      -45.10140000     -34.04690000     -74.03610000
C      -45.26350000     -35.34990000     -72.45400000
C      -45.18300000     -36.41500000     -73.30220000
C      -45.12170000     -35.78700000     -71.04810000
H      -45.27950000     -36.44700000     -74.38090000
C      -44.94940000     -37.14040000     -70.90250000
C      -45.05150000     -35.07270000     -69.80420000
C      -44.94310000     -35.96720000     -68.74640000
S      -44.87700000     -37.98790000     -72.47000000
S      -44.89280000     -37.67510000     -69.27350000
H      -44.64940000     -35.64610000     -67.79770000
