40
Properties=species:S:1:pos:R:3 #=T CELL(abcABC):=T 1.889726e+02=T 90.00000=T Traj:=T positionsangstrom=T Step:=T 0=T Bead:=T pbc="F F F"
C      -45.93260000     -31.51750000     -74.56500000
C      -46.40020000     -30.78600000     -73.50440000
C      -45.38490000     -30.22960000     -72.74710000
C      -44.03890000     -30.33620000     -72.98170000
C      -43.60700000     -30.85240000     -74.19680000
C      -44.60500000     -31.45650000     -74.99920000
H      -46.62120000     -31.99690000     -75.26450000
H      -45.69270000     -29.77730000     -71.75970000
H      -42.57690000     -30.73130000     -74.44140000
H      -44.23770000     -31.88460000     -75.88390000
C      -43.11120000     -29.84000000     -71.94380000
H      -43.28730000     -28.79140000     -71.61000000
H      -42.07190000     -29.85890000     -72.29000000
C      -47.85170000     -30.69870000     -73.19610000
H      -48.27630000     -29.67880000     -73.20150000
H      -48.43830000     -31.31760000     -73.93850000
S      -43.24220000     -30.75480000     -70.33760000
S      -48.23440000     -31.41150000     -71.50000000
C      -43.53640000     -32.64420000     -70.64970000
H      -44.25870000     -32.67930000     -71.48540000
H      -42.56070000     -33.17650000     -71.04870000
C      -47.27640000     -33.02260000     -71.56440000
H      -46.23880000     -32.78230000     -71.90280000
H      -47.70640000     -33.39560000     -72.49370000
C      -47.45270000     -33.89220000     -70.25650000
H      -47.12570000     -33.36970000     -69.36070000
H      -48.55570000     -33.97870000     -70.00880000
C      -44.14570000     -33.17320000     -69.38110000
H      -45.18830000     -32.77260000     -69.23960000
H      -43.69990000     -32.97510000     -68.41710000
C      -44.26070000     -34.68330000     -69.48400000
C      -43.19190000     -35.58450000     -69.22870000
C      -45.32830000     -35.43270000     -70.03450000
H      -42.20360000     -35.37710000     -68.87880000
C      -45.01690000     -36.81660000     -70.20790000
C      -46.75310000     -35.23620000     -70.38520000
C      -47.41050000     -36.41300000     -70.74970000
S      -43.47760000     -37.25410000     -69.73470000
S      -46.30660000     -37.81860000     -70.83770000
H      -48.44250000     -36.58390000     -71.01520000
