40
Properties=species:S:1:pos:R:3 #=T CELL(abcABC):=T 1.889726e+02=T 90.00000=T Traj:=T positionsangstrom=T Step:=T 0=T Bead:=T pbc="F F F"
C      -45.87540000     -31.77110000     -73.21460000
C      -44.83950000     -32.71150000     -73.31070000
C      -45.10020000     -34.08490000     -73.17300000
C      -46.46060000     -34.54810000     -73.02870000
C      -47.50160000     -33.53570000     -72.94240000
C      -47.21100000     -32.16450000     -72.91600000
H      -45.64210000     -30.75470000     -73.35420000
H      -44.19910000     -34.68550000     -73.26980000
H      -48.47240000     -33.84760000     -72.74640000
H      -48.01980000     -31.48770000     -72.88780000
C      -46.73370000     -35.96760000     -73.24940000
H      -46.52430000     -36.29310000     -74.28290000
H      -47.77610000     -36.29220000     -73.02020000
C      -43.43690000     -32.18070000     -73.55350000
H      -43.20370000     -32.02980000     -74.59810000
H      -43.34580000     -31.24990000     -72.99670000
S      -45.59120000     -37.05960000     -72.15960000
S      -41.96880000     -33.10750000     -72.98250000
C      -46.18570000     -36.73170000     -70.41540000
H      -47.20330000     -36.32260000     -70.39010000
H      -45.93540000     -37.71370000     -69.98430000
C      -41.80660000     -32.55870000     -71.29350000
H      -41.83620000     -31.46340000     -71.14530000
H      -40.79440000     -32.86420000     -70.94890000
C      -42.75410000     -33.25190000     -70.26600000
H      -42.91390000     -34.30180000     -70.61150000
H      -42.24070000     -33.32870000     -69.26100000
C      -45.40220000     -35.58110000     -69.82050000
H      -44.45840000     -35.46110000     -70.32050000
H      -45.10640000     -35.95250000     -68.83740000
C      -46.11590000     -34.27370000     -69.73310000
C      -47.43400000     -34.14120000     -69.43810000
C      -45.41480000     -32.93960000     -69.80620000
H      -48.10110000     -34.89530000     -69.17490000
C      -46.26910000     -31.87350000     -69.64550000
C      -44.07740000     -32.50300000     -70.03730000
C      -43.96310000     -31.10880000     -69.98840000
S      -47.92710000     -32.41230000     -69.31050000
S      -45.55610000     -30.28270000     -69.68570000
H      -43.10680000     -30.47220000     -69.99080000
