40
Properties=species:S:1:pos:R:3 #=T CELL(abcABC):=T 1.889726e+02=T 90.00000=T Traj:=T positionsangstrom=T Step:=T 0=T Bead:=T pbc="F F F"
C      -44.73200000     -35.54070000     -71.66020000
C      -44.93940000     -35.14580000     -72.97390000
C      -44.08970000     -34.20520000     -73.56050000
C      -43.06480000     -33.62200000     -72.85560000
C      -42.81930000     -34.04350000     -71.55660000
C      -43.61580000     -35.02490000     -70.95800000
H      -45.57670000     -36.10840000     -71.11520000
H      -44.30030000     -33.94610000     -74.63390000
H      -41.85710000     -33.94060000     -71.02920000
H      -43.44500000     -35.22770000     -69.85590000
C      -42.20050000     -32.41410000     -73.47220000
H      -42.01170000     -32.67950000     -74.51180000
H      -41.28700000     -32.34370000     -72.88290000
C      -46.09040000     -35.75620000     -73.80020000
H      -46.29910000     -35.10560000     -74.64320000
H      -45.76030000     -36.76680000     -74.00190000
S      -43.19230000     -30.83260000     -73.59950000
S      -47.61450000     -36.00700000     -72.77710000
C      -43.64370000     -30.31120000     -71.89370000
H      -42.85350000     -30.72930000     -71.14240000
H      -43.54070000     -29.20740000     -71.89140000
C      -48.26170000     -34.31550000     -72.92600000
H      -49.27540000     -34.21700000     -72.50750000
H      -48.48750000     -34.12560000     -73.96920000
C      -47.49410000     -33.11270000     -72.32210000
H      -46.50280000     -33.02940000     -72.75440000
H      -48.05650000     -32.17870000     -72.48960000
C      -45.03420000     -30.77490000     -71.48260000
H      -45.43510000     -31.28750000     -72.34390000
H      -45.69780000     -29.92630000     -71.17420000
C      -45.02140000     -31.67550000     -70.28400000
C      -44.24970000     -31.39580000     -69.18740000
C      -45.97080000     -32.69370000     -70.08090000
H      -43.33270000     -30.74120000     -69.16880000
C      -45.83340000     -33.28310000     -68.86750000
C      -47.18420000     -33.21320000     -70.81120000
C      -47.91340000     -34.02040000     -69.97820000
S      -44.63770000     -32.59520000     -67.85920000
S      -47.14390000     -34.35860000     -68.44430000
H      -48.71010000     -34.65350000     -70.27550000
