40
Properties=species:S:1:pos:R:3 #=T CELL(abcABC):=T 1.889726e+02=T 90.00000=T Traj:=T positionsangstrom=T Step:=T 0=T Bead:=T pbc="F F F"
C      -46.05820000     -31.42280000     -74.36470000
C      -46.47350000     -30.62390000     -73.30140000
C      -45.50020000     -30.14150000     -72.40070000
C      -44.14400000     -30.43760000     -72.63440000
C      -43.70760000     -31.14430000     -73.77760000
C      -44.70070000     -31.67580000     -74.61170000
H      -46.81860000     -31.88500000     -75.08740000
H      -45.78570000     -29.65860000     -71.48880000
H      -42.64550000     -31.25540000     -73.95950000
H      -44.41220000     -32.32750000     -75.42200000
C      -43.00910000     -29.92250000     -71.71450000
H      -43.16590000     -28.87550000     -71.44770000
H      -42.14570000     -29.92030000     -72.37640000
C      -48.02450000     -30.46960000     -72.92040000
H      -48.24950000     -29.40540000     -72.73990000
H      -48.62150000     -30.72150000     -73.78420000
S      -42.90150000     -30.77360000     -70.15660000
S      -48.33410000     -31.46980000     -71.43910000
C      -43.09560000     -32.58540000     -70.46260000
H      -43.13550000     -32.84200000     -71.54350000
H      -42.20950000     -33.09880000     -70.03900000
C      -47.53920000     -33.02940000     -71.82720000
H      -46.45730000     -33.04340000     -72.23210000
H      -48.10560000     -33.50590000     -72.62260000
C      -47.51190000     -33.95130000     -70.61290000
H      -47.08370000     -33.44060000     -69.76670000
H      -48.53700000     -34.10480000     -70.21010000
C      -44.30100000     -33.08160000     -69.66600000
H      -45.23920000     -32.68560000     -70.11280000
H      -44.28700000     -32.83740000     -68.63450000
C      -44.31270000     -34.65820000     -69.84100000
C      -43.16200000     -35.42250000     -69.58790000
C      -45.38100000     -35.50210000     -70.27600000
H      -42.30410000     -35.05870000     -69.09290000
C      -45.01020000     -36.82090000     -70.36630000
C      -46.71370000     -35.26160000     -70.74020000
C      -47.38500000     -36.42440000     -71.11590000
S      -43.35320000     -37.15550000     -69.75510000
S      -46.38480000     -37.84950000     -71.01170000
H      -48.46680000     -36.63790000     -71.45570000
