40
Properties=species:S:1:pos:R:3 #=T CELL(abcABC):=T 1.889726e+02=T 90.00000=T Traj:=T positionsangstrom=T Step:=T 0=T Bead:=T pbc="F F F"
C      -44.64040000     -35.72170000     -72.09890000
C      -44.96510000     -35.05890000     -73.21870000
C      -44.17490000     -33.93110000     -73.61040000
C      -43.05670000     -33.57610000     -72.92300000
C      -42.79260000     -34.20620000     -71.73290000
C      -43.61910000     -35.22140000     -71.31610000
H      -45.38500000     -36.29030000     -71.63490000
H      -44.41360000     -33.29460000     -74.55520000
H      -41.83020000     -33.99050000     -71.24360000
H      -43.55510000     -35.75640000     -70.31160000
C      -42.15090000     -32.49540000     -73.43110000
H      -41.62500000     -32.72200000     -74.33300000
H      -41.37640000     -32.42270000     -72.62030000
C      -46.27670000     -35.16550000     -74.12200000
H      -46.62370000     -34.18770000     -74.28010000
H      -46.13650000     -35.76280000     -75.03870000
S      -43.14950000     -31.01450000     -73.74150000
S      -47.68430000     -35.81450000     -73.13510000
C      -43.66130000     -30.47960000     -72.11740000
H      -42.82560000     -30.67380000     -71.43360000
H      -43.87190000     -29.36110000     -72.21220000
C      -48.44100000     -34.20730000     -72.60290000
H      -49.40110000     -34.38290000     -72.14050000
H      -48.76530000     -33.61020000     -73.51110000
C      -47.59030000     -33.14240000     -71.89530000
H      -46.64460000     -32.92930000     -72.48230000
H      -48.23230000     -32.28110000     -71.83670000
C      -45.04930000     -31.03840000     -71.60300000
H      -45.53900000     -31.59060000     -72.44890000
H      -45.63230000     -30.10400000     -71.51550000
C      -45.10970000     -31.74410000     -70.26780000
C      -44.21160000     -31.41520000     -69.27480000
C      -46.11010000     -32.75820000     -69.84710000
H      -43.32610000     -30.76490000     -69.27150000
C      -45.83970000     -33.22710000     -68.52180000
C      -47.17300000     -33.48370000     -70.45280000
C      -47.79970000     -34.35300000     -69.55740000
S      -44.58830000     -32.24750000     -67.76320000
S      -46.93400000     -34.49670000     -68.06400000
H      -48.63760000     -35.03060000     -69.68980000
