40
Properties=species:S:1:pos:R:3 #=T CELL(abcABC):=T 1.889726e+02=T 90.00000=T Traj:=T positionsangstrom=T Step:=T 0=T Bead:=T pbc="F F F"
C      -44.72700000     -35.58380000     -71.59730000
C      -45.00520000     -34.93970000     -72.89540000
C      -44.16730000     -33.96730000     -73.44020000
C      -42.99880000     -33.50550000     -72.77860000
C      -42.76900000     -34.05050000     -71.51390000
C      -43.58410000     -35.08230000     -70.98980000
H      -45.43110000     -36.25350000     -71.13370000
H      -44.43450000     -33.64340000     -74.48100000
H      -41.87530000     -33.77870000     -71.04140000
H      -43.33890000     -35.57540000     -70.09040000
C      -42.19060000     -32.42220000     -73.53300000
H      -41.97110000     -32.69620000     -74.54640000
H      -41.17190000     -32.31080000     -73.01770000
C      -46.03340000     -35.55130000     -73.79090000
H      -46.31510000     -34.82960000     -74.53690000
H      -45.77820000     -36.53650000     -74.26600000
S      -43.00790000     -30.73650000     -73.68390000
S      -47.64420000     -35.89350000     -72.92880000
C      -43.72990000     -30.42430000     -72.06590000
H      -42.99950000     -30.22180000     -71.31610000
H      -44.05110000     -29.30660000     -72.18740000
C      -48.50530000     -34.26690000     -72.86950000
H      -49.52420000     -34.45850000     -72.51210000
H      -48.63770000     -33.78580000     -73.90280000
C      -47.78860000     -33.15040000     -72.08540000
H      -47.01250000     -32.82800000     -72.82470000
H      -48.47120000     -32.31420000     -72.15190000
C      -45.01830000     -31.22640000     -71.75010000
H      -45.17000000     -32.05350000     -72.47900000
H      -45.89310000     -30.59850000     -71.99230000
C      -45.02630000     -31.82160000     -70.40800000
C      -44.19820000     -31.50260000     -69.36130000
C      -46.14150000     -32.72510000     -69.97540000
H      -43.36940000     -30.87990000     -69.34150000
C      -45.86880000     -33.28930000     -68.69860000
C      -47.23370000     -33.39970000     -70.66830000
C      -47.89120000     -34.27090000     -69.78940000
S      -44.54140000     -32.46230000     -67.90460000
S      -47.06710000     -34.44370000     -68.28900000
H      -48.84750000     -34.80680000     -70.03520000
