40
Properties=species:S:1:pos:R:3 #=T CELL(abcABC):=T 1.889726e+02=T 90.00000=T Traj:=T positionsangstrom=T Step:=T 0=T Bead:=T pbc="F F F"
C      -46.16600000     -31.04500000     -74.37170000
C      -46.42370000     -30.78660000     -73.01220000
C      -45.31770000     -30.46040000     -72.07060000
C      -43.97200000     -30.61510000     -72.42010000
C      -43.76940000     -31.06030000     -73.71560000
C      -44.79170000     -31.16600000     -74.67560000
H      -46.89430000     -31.06060000     -75.20520000
H      -45.58410000     -30.16850000     -71.13470000
H      -42.80470000     -31.25080000     -74.12400000
H      -44.58400000     -31.43480000     -75.66960000
C      -42.86860000     -30.25870000     -71.45410000
H      -42.49460000     -29.23650000     -71.44100000
H      -41.94800000     -30.75430000     -71.67230000
C      -47.84060000     -30.43670000     -72.59440000
H      -47.79670000     -29.50750000     -71.99760000
H      -48.55320000     -30.26590000     -73.47000000
S      -43.12810000     -30.53430000     -69.70550000
S      -48.67930000     -31.67920000     -71.51140000
C      -43.05260000     -32.44780000     -69.57340000
H      -42.20830000     -32.72370000     -70.22940000
H      -42.71260000     -32.62720000     -68.55290000
C      -47.63930000     -33.14210000     -71.61400000
H      -46.65270000     -32.80920000     -71.94860000
H      -47.91930000     -33.88990000     -72.33500000
C      -47.51270000     -34.01740000     -70.25270000
H      -46.90410000     -33.42350000     -69.56370000
H      -48.54850000     -34.15980000     -69.88100000
C      -44.29410000     -33.18740000     -70.06010000
H      -44.79780000     -32.69430000     -70.94830000
H      -45.10910000     -33.18660000     -69.32290000
C      -44.08870000     -34.68020000     -70.36670000
C      -42.93410000     -35.38960000     -70.40680000
C      -45.32600000     -35.48680000     -70.57930000
H      -41.90570000     -35.09360000     -70.16940000
C      -44.98550000     -36.76880000     -70.86390000
C      -46.71710000     -35.27520000     -70.54300000
C      -47.35960000     -36.45510000     -70.73560000
S      -43.33180000     -37.17500000     -70.54170000
S      -46.25700000     -37.83460000     -71.05840000
H      -48.37710000     -36.59150000     -70.75360000
