40
Properties=species:S:1:pos:R:3 #=T CELL(abcABC):=T 1.889726e+02=T 90.00000=T Traj:=T positionsangstrom=T Step:=T 0=T Bead:=T pbc="F F F"
C      -46.12820000     -31.11220000     -74.36830000
C      -46.44950000     -30.75620000     -73.01390000
C      -45.43380000     -30.45360000     -72.09310000
C      -44.04390000     -30.60100000     -72.42550000
C      -43.77380000     -30.99460000     -73.70600000
C      -44.76060000     -31.23040000     -74.61410000
H      -46.84230000     -31.38690000     -75.14580000
H      -45.62960000     -30.25330000     -71.05520000
H      -42.72710000     -31.21510000     -74.09410000
H      -44.44800000     -31.58890000     -75.53590000
C      -42.89730000     -30.25570000     -71.40230000
H      -42.68670000     -29.16170000     -71.51440000
H      -42.03410000     -30.92090000     -71.61810000
C      -47.93370000     -30.57650000     -72.65610000
H      -48.16820000     -29.58930000     -72.33730000
H      -48.44570000     -30.84850000     -73.57260000
S      -43.28250000     -30.64390000     -69.58750000
S      -48.56010000     -31.60500000     -71.33280000
C      -42.92860000     -32.47200000     -69.48340000
H      -42.07420000     -32.76500000     -70.07850000
H      -42.74280000     -32.91110000     -68.47510000
C      -47.63510000     -33.21100000     -71.70030000
H      -46.67380000     -32.99870000     -72.15380000
H      -48.31720000     -33.76860000     -72.42020000
C      -47.50080000     -33.93810000     -70.28380000
H      -46.76640000     -33.46830000     -69.56090000
H      -48.45590000     -34.12480000     -69.81940000
C      -44.14350000     -33.21680000     -70.11870000
H      -44.31770000     -32.75460000     -71.06840000
H      -45.01070000     -32.99700000     -69.48030000
C      -44.09570000     -34.71440000     -70.12960000
C      -42.95050000     -35.42320000     -70.36980000
C      -45.30220000     -35.48800000     -70.48510000
H      -41.96450000     -35.04210000     -70.33200000
C      -44.94250000     -36.83110000     -70.82100000
C      -46.75110000     -35.24360000     -70.46730000
C      -47.39280000     -36.39410000     -70.79570000
S      -43.19920000     -37.03390000     -70.96800000
S      -46.35590000     -37.81250000     -71.03980000
H      -48.38700000     -36.36560000     -71.10080000
