40
Properties=species:S:1:pos:R:3 #=T CELL(abcABC):=T 1.889726e+02=T 90.00000=T Traj:=T positionsangstrom=T Step:=T 0=T Bead:=T pbc="F F F"
C      -44.66040000     -35.56390000     -72.40660000
C      -45.32240000     -34.95390000     -73.54140000
C      -44.77010000     -33.72380000     -74.03900000
C      -43.61740000     -33.21490000     -73.46150000
C      -42.96190000     -33.90230000     -72.38340000
C      -43.44120000     -35.09800000     -71.87900000
H      -45.01430000     -36.50650000     -72.04710000
H      -45.19330000     -33.28340000     -74.98350000
H      -41.93900000     -33.54530000     -72.17350000
H      -42.96140000     -35.54880000     -70.96000000
C      -43.10660000     -31.88220000     -74.04960000
H      -43.25170000     -31.92220000     -75.21020000
H      -42.04090000     -31.72130000     -73.89490000
C      -46.46640000     -35.70910000     -74.15840000
H      -46.69940000     -35.37520000     -75.21510000
H      -46.24750000     -36.76180000     -74.13120000
S      -44.12570000     -30.47620000     -73.52190000
S      -47.91920000     -35.61320000     -72.88680000
C      -43.64060000     -30.56430000     -71.67090000
H      -42.82270000     -31.33570000     -71.39580000
H      -43.18130000     -29.59230000     -71.50630000
C      -48.20090000     -33.74640000     -72.63850000
H      -49.25840000     -33.83100000     -72.27510000
H      -48.38900000     -33.37720000     -73.70300000
C      -47.17880000     -32.88310000     -71.74380000
H      -46.22930000     -32.60340000     -72.30830000
H      -47.80390000     -31.97420000     -71.56290000
C      -44.95090000     -30.69570000     -70.84480000
H      -45.72960000     -31.04070000     -71.52080000
H      -45.16570000     -29.64520000     -70.34200000
C      -44.84250000     -31.73540000     -69.76980000
C      -43.99740000     -31.62130000     -68.66170000
C      -45.67200000     -32.95790000     -69.65300000
H      -43.22350000     -30.86660000     -68.53930000
C      -45.33660000     -33.66740000     -68.50910000
C      -46.76170000     -33.53200000     -70.44720000
C      -47.34780000     -34.56910000     -69.72910000
S      -44.06090000     -32.96200000     -67.57010000
S      -46.41590000     -34.99860000     -68.31530000
H      -48.00680000     -35.40800000     -69.98440000
