40
Properties=species:S:1:pos:R:3 #=T CELL(abcABC):=T 1.889726e+02=T 90.00000=T Traj:=T positionsangstrom=T Step:=T 0=T Bead:=T pbc="F F F"
C      -44.65340000     -35.42570000     -72.43360000
C      -45.38230000     -34.86880000     -73.48530000
C      -44.89660000     -33.73480000     -74.13900000
C      -43.59710000     -33.14800000     -73.83080000
C      -42.87490000     -33.82830000     -72.87380000
C      -43.34550000     -34.96960000     -72.18770000
H      -44.93610000     -36.37950000     -71.98100000
H      -45.53330000     -33.37310000     -74.90630000
H      -41.85370000     -33.50600000     -72.65510000
H      -42.67220000     -35.34390000     -71.46380000
C      -43.32140000     -31.67840000     -74.32580000
H      -43.74730000     -31.69640000     -75.33470000
H      -42.23620000     -31.41490000     -74.42660000
C      -46.63310000     -35.53530000     -73.95560000
H      -46.94730000     -35.03840000     -74.91670000
H      -46.36630000     -36.61420000     -74.19550000
S      -44.31940000     -30.43640000     -73.49990000
S      -48.11660000     -35.58010000     -72.83230000
C      -43.84920000     -30.71910000     -71.68470000
H      -43.26760000     -31.63240000     -71.80110000
H      -43.09980000     -29.90330000     -71.41270000
C      -48.26450000     -33.82820000     -72.44790000
H      -49.30450000     -33.83400000     -72.00480000
H      -48.34460000     -33.30030000     -73.41060000
C      -47.22100000     -33.03830000     -71.63290000
H      -46.33330000     -32.79550000     -72.22380000
H      -47.69910000     -32.06950000     -71.41470000
C      -45.00170000     -30.65640000     -70.75460000
H      -46.02870000     -30.79650000     -71.35480000
H      -44.94000000     -29.63530000     -70.39060000
C      -44.86260000     -31.70060000     -69.68770000
C      -43.85060000     -31.60630000     -68.73460000
C      -45.54430000     -33.00210000     -69.62590000
H      -43.33050000     -30.66330000     -68.59250000
C      -45.18260000     -33.67650000     -68.46780000
C      -46.65350000     -33.62900000     -70.29920000
C      -47.13440000     -34.73180000     -69.58020000
S      -43.92950000     -32.97900000     -67.55840000
S      -46.11710000     -35.17340000     -68.17090000
H      -47.84640000     -35.46230000     -69.98960000
