40
Properties=species:S:1:pos:R:3 #=T CELL(abcABC):=T 1.889726e+02=T 90.00000=T Traj:=T positionsangstrom=T Step:=T 0=T Bead:=T pbc="F F F"
C      -44.52440000     -35.65130000     -72.42910000
C      -45.18710000     -35.06440000     -73.52130000
C      -44.56700000     -33.92990000     -74.00640000
C      -43.44230000     -33.36680000     -73.44740000
C      -42.80880000     -33.89990000     -72.28780000
C      -43.49380000     -35.00640000     -71.78270000
H      -45.01590000     -36.39840000     -71.93910000
H      -45.06710000     -33.25030000     -74.75520000
H      -41.96830000     -33.34170000     -71.73340000
H      -43.15690000     -35.56640000     -70.93090000
C      -42.85840000     -32.08880000     -74.07620000
H      -42.93570000     -32.14040000     -75.13930000
H      -41.84550000     -31.98980000     -73.74360000
C      -46.51450000     -35.46390000     -74.04330000
H      -46.75130000     -34.75610000     -74.83290000
H      -46.51250000     -36.48590000     -74.49140000
S      -43.88220000     -30.57740000     -73.55800000
S      -47.93100000     -35.56930000     -72.91750000
C      -43.69960000     -30.55460000     -71.70340000
H      -43.11300000     -31.33840000     -71.36560000
H      -43.19130000     -29.59900000     -71.59660000
C      -48.37690000     -33.80990000     -72.42320000
H      -49.14230000     -33.83930000     -71.66200000
H      -48.70230000     -33.25090000     -73.23540000
C      -47.25460000     -32.94670000     -71.79290000
H      -46.39030000     -32.95470000     -72.49650000
H      -47.56360000     -31.92990000     -71.60900000
C      -44.99430000     -30.61940000     -70.86270000
H      -45.88210000     -30.68590000     -71.44110000
H      -45.12680000     -29.62710000     -70.38780000
C      -45.05180000     -31.69140000     -69.81770000
C      -44.09680000     -31.61440000     -68.79610000
C      -45.83560000     -32.86930000     -69.66650000
H      -43.52190000     -30.70590000     -68.64690000
C      -45.56780000     -33.52830000     -68.47030000
C      -46.81190000     -33.51790000     -70.47590000
C      -47.26400000     -34.67990000     -69.89350000
S      -44.23190000     -32.81630000     -67.60230000
S      -46.42760000     -35.01490000     -68.29520000
H      -47.94210000     -35.41060000     -70.31280000
