40
Properties=species:S:1:pos:R:3 #=T CELL(abcABC):=T 1.889726e+02=T 90.00000=T Traj:=T positionsangstrom=T Step:=T 0=T Bead:=T pbc="F F F"
C      -42.07770000     -35.53180000     -70.62590000
C      -42.78580000     -34.30660000     -70.71130000
C      -43.91630000     -34.35620000     -71.61450000
C      -44.04480000     -35.41230000     -72.54180000
C      -43.32940000     -36.60550000     -72.31040000
C      -42.38410000     -36.68720000     -71.31800000
H      -41.17010000     -35.51940000     -69.98800000
H      -44.48060000     -33.50680000     -71.69510000
H      -43.52230000     -37.48320000     -72.99730000
H      -41.75970000     -37.55980000     -71.13740000
C      -45.02650000     -35.26590000     -73.69260000
H      -44.80220000     -35.85520000     -74.57950000
H      -45.05860000     -34.23650000     -73.97310000
C      -42.64010000     -33.18530000     -69.67080000
H      -41.62520000     -32.81830000     -69.47730000
H      -43.20040000     -32.25080000     -69.94930000
S      -46.85030000     -35.73430000     -73.47460000
S      -43.31720000     -33.75990000     -68.09960000
C      -46.95690000     -35.80240000     -71.66690000
H      -47.56600000     -36.64390000     -71.40070000
H      -45.88640000     -36.13290000     -71.44090000
C      -45.17850000     -33.83200000     -68.54120000
H      -45.71420000     -34.38220000     -67.75680000
H      -45.19740000     -34.44710000     -69.40200000
C      -45.91220000     -32.52450000     -68.76290000
H      -47.00000000     -32.75680000     -68.83130000
H      -45.80730000     -31.87270000     -67.88700000
C      -47.49550000     -34.44010000     -71.06410000
H      -47.22930000     -34.36740000     -69.94940000
H      -48.50110000     -34.52570000     -71.05540000
C      -47.20380000     -33.10460000     -71.79690000
C      -47.78330000     -32.75180000     -72.98710000
C      -46.40340000     -32.00830000     -71.27860000
H      -48.46810000     -33.43560000     -73.55410000
C      -46.46580000     -30.86810000     -72.07780000
C      -45.75040000     -31.68930000     -70.01410000
C      -45.27410000     -30.38160000     -70.03820000
S      -47.48970000     -31.03800000     -73.44730000
S      -45.52900000     -29.51180000     -71.46020000
H      -44.65520000     -29.93250000     -69.19530000
