40
Properties=species:S:1:pos:R:3 #=T CELL(abcABC):=T 1.889726e+02=T 90.00000=T Traj:=T positionsangstrom=T Step:=T 0=T Bead:=T pbc="F F F"
C      -46.09170000     -31.59860000     -73.85520000
C      -46.51410000     -30.71620000     -72.89830000
C      -45.56450000     -30.13250000     -72.06320000
C      -44.19700000     -30.30750000     -72.25770000
C      -43.82650000     -31.21530000     -73.20730000
C      -44.70890000     -31.86520000     -74.03050000
H      -46.81430000     -32.24110000     -74.41330000
H      -45.81350000     -29.49260000     -71.19030000
H      -42.79020000     -31.39570000     -73.42290000
H      -44.32540000     -32.47200000     -74.77940000
C      -43.29060000     -29.64240000     -71.36540000
H      -43.73140000     -28.71490000     -71.03120000
H      -42.39790000     -29.43780000     -71.98910000
C      -47.95860000     -30.64840000     -72.45590000
H      -48.43950000     -29.67410000     -72.41050000
H      -48.53410000     -31.28970000     -73.16580000
S      -42.75690000     -30.62900000     -69.82130000
S      -48.14050000     -31.49580000     -70.78830000
C      -42.83540000     -32.39070000     -70.34020000
H      -42.43110000     -32.57820000     -71.30010000
H      -42.06800000     -32.89340000     -69.71680000
C      -47.84700000     -33.32810000     -71.33480000
H      -47.02960000     -33.33950000     -72.12440000
H      -48.72790000     -33.66770000     -71.91730000
C      -47.54510000     -34.10340000     -70.08140000
H      -46.90480000     -33.43400000     -69.42860000
H      -48.46380000     -34.21000000     -69.50400000
C      -44.23690000     -33.10740000     -70.33340000
H      -44.90320000     -32.49810000     -71.05580000
H      -44.78040000     -33.00730000     -69.37720000
C      -44.18210000     -34.62120000     -70.59160000
C      -43.02590000     -35.32670000     -70.88830000
C      -45.35760000     -35.50390000     -70.67320000
H      -42.13700000     -34.81060000     -71.03500000
C      -45.05830000     -36.74840000     -71.10160000
C      -46.79130000     -35.33730000     -70.50880000
C      -47.49710000     -36.52080000     -70.81510000
S      -43.34300000     -37.06870000     -71.14670000
S      -46.50760000     -37.83900000     -71.24710000
H      -48.61530000     -36.60420000     -70.67810000
