40
Properties=species:S:1:pos:R:3 #=T CELL(abcABC):=T 1.889726e+02=T 90.00000=T Traj:=T positionsangstrom=T Step:=T 0=T Bead:=T pbc="F F F"
C      -45.92620000     -31.70000000     -73.88230000
C      -46.40950000     -30.89880000     -72.80180000
C      -45.43390000     -30.30470000     -72.01880000
C      -44.08830000     -30.44530000     -72.29450000
C      -43.69930000     -31.16160000     -73.46680000
C      -44.60880000     -31.89000000     -74.21540000
H      -46.69630000     -32.27720000     -74.46850000
H      -45.61840000     -29.67320000     -71.07760000
H      -42.58760000     -31.22680000     -73.69760000
H      -44.23870000     -32.60410000     -74.88750000
C      -43.07690000     -29.84200000     -71.30430000
H      -43.16970000     -28.78990000     -70.92760000
H      -42.14470000     -29.81170000     -71.79000000
C      -47.91810000     -30.74070000     -72.55970000
H      -48.22730000     -29.69450000     -72.57350000
H      -48.44780000     -31.29080000     -73.39740000
S      -42.81990000     -30.79310000     -69.71020000
S      -48.41030000     -31.46110000     -70.92310000
C      -42.84710000     -32.54550000     -70.31440000
H      -42.47620000     -32.60240000     -71.33970000
H      -42.02480000     -33.06030000     -69.67720000
C      -47.62930000     -33.07800000     -71.20120000
H      -46.66140000     -33.01890000     -71.63730000
H      -48.24510000     -33.60800000     -71.91610000
C      -47.54400000     -34.03670000     -69.99240000
H      -46.93790000     -33.56000000     -69.20550000
H      -48.52080000     -34.18210000     -69.52490000
C      -44.21950000     -33.10540000     -70.13190000
H      -44.90810000     -32.54490000     -70.77150000
H      -44.51950000     -32.97490000     -69.09740000
C      -44.27780000     -34.55200000     -70.49410000
C      -43.14810000     -35.15530000     -70.99150000
C      -45.43810000     -35.45550000     -70.60900000
H      -42.23060000     -34.73400000     -70.99920000
C      -45.09430000     -36.68400000     -71.05980000
C      -46.84950000     -35.32550000     -70.31060000
C      -47.54590000     -36.50620000     -70.63550000
S      -43.43430000     -36.85370000     -71.41090000
S      -46.45630000     -37.79040000     -71.19170000
H      -48.61560000     -36.64500000     -70.33450000
