40
Properties=species:S:1:pos:R:3 #=T CELL(abcABC):=T 1.889726e+02=T 90.00000=T Traj:=T positionsangstrom=T Step:=T 0=T Bead:=T pbc="F F F"
C      -44.68870000     -35.75200000     -73.12400000
C      -45.51840000     -34.77720000     -73.69460000
C      -45.04740000     -33.52440000     -74.04570000
C      -43.64090000     -33.18730000     -73.90860000
C      -42.81390000     -34.14310000     -73.40320000
C      -43.36150000     -35.46610000     -73.07880000
H      -45.20680000     -36.69900000     -72.86380000
H      -45.65530000     -32.90060000     -74.62060000
H      -41.79130000     -33.94560000     -73.06680000
H      -42.70090000     -36.22180000     -72.75720000
C      -43.25270000     -31.78590000     -74.45460000
H      -43.59730000     -31.75860000     -75.49560000
H      -42.18660000     -31.70480000     -74.42530000
C      -47.10200000     -35.09030000     -73.97830000
H      -47.49950000     -34.20020000     -74.51280000
H      -47.13290000     -35.94080000     -74.66200000
S      -43.88890000     -30.27880000     -73.56420000
S      -48.17600000     -35.56530000     -72.49070000
C      -43.70290000     -30.78710000     -71.85110000
H      -42.97510000     -31.57140000     -71.96580000
H      -43.25970000     -29.89470000     -71.30460000
C      -48.66190000     -33.97300000     -71.84810000
H      -49.48620000     -34.04060000     -71.14350000
H      -49.20520000     -33.34370000     -72.54800000
C      -47.46870000     -33.15890000     -71.22830000
H      -46.75870000     -33.26500000     -72.05080000
H      -47.78570000     -32.16640000     -70.98370000
C      -45.01160000     -31.22800000     -71.22280000
H      -45.58080000     -31.77580000     -71.95760000
H      -45.60940000     -30.28980000     -71.04170000
C      -44.81700000     -31.95000000     -69.87320000
C      -43.79940000     -31.55930000     -68.98130000
C      -45.55040000     -33.09800000     -69.45860000
H      -43.03930000     -30.80300000     -69.11680000
C      -45.11740000     -33.60050000     -68.22680000
C      -46.76050000     -33.65960000     -69.99140000
C      -47.13120000     -34.76060000     -69.26830000
S      -43.81720000     -32.60450000     -67.52310000
S      -46.07280000     -34.99120000     -67.87670000
H      -47.76420000     -35.58910000     -69.50190000
