40
Properties=species:S:1:pos:R:3 #=T CELL(abcABC):=T 1.889726e+02=T 90.00000=T Traj:=T positionsangstrom=T Step:=T 0=T Bead:=T pbc="F F F"
C      -42.11030000     -35.66880000     -70.93880000
C      -42.69230000     -34.41990000     -71.09530000
C      -43.84290000     -34.26500000     -71.94510000
C      -44.31510000     -35.38200000     -72.69850000
C      -43.67340000     -36.57340000     -72.62870000
C      -42.56390000     -36.69330000     -71.81050000
H      -41.24680000     -35.75980000     -70.24530000
H      -44.32060000     -33.27070000     -72.02230000
H      -43.94350000     -37.25950000     -73.38690000
H      -42.01980000     -37.59220000     -71.76870000
C      -45.53420000     -35.18590000     -73.53170000
H      -45.36030000     -35.56980000     -74.59360000
H      -45.80770000     -34.14460000     -73.53400000
C      -42.23420000     -33.14430000     -70.33360000
H      -41.19400000     -33.21630000     -70.07740000
H      -42.42370000     -32.18830000     -70.85190000
S      -46.98000000     -36.23420000     -72.85710000
S      -42.97620000     -32.82370000     -68.57920000
C      -47.14140000     -35.61920000     -71.04050000
H      -47.61010000     -36.40920000     -70.35460000
H      -46.08480000     -35.37700000     -70.72480000
C      -44.65780000     -33.69230000     -68.67630000
H      -44.71710000     -34.44510000     -67.81060000
H      -44.71030000     -34.30700000     -69.60510000
C      -45.80070000     -32.68460000     -68.59650000
H      -46.72590000     -33.27010000     -68.49250000
H      -45.67840000     -32.07790000     -67.72250000
C      -47.92860000     -34.34320000     -70.87260000
H      -48.10620000     -34.20090000     -69.76960000
H      -49.00270000     -34.56650000     -71.30250000
C      -47.38670000     -33.05310000     -71.56780000
C      -47.90540000     -32.73440000     -72.80450000
C      -46.64890000     -31.99000000     -70.95810000
H      -48.58220000     -33.35590000     -73.29720000
C      -46.55890000     -30.95740000     -71.90980000
C      -45.87050000     -31.82350000     -69.81470000
C      -45.06720000     -30.68190000     -69.96300000
S      -47.37920000     -31.15710000     -73.36780000
S      -45.35370000     -29.78120000     -71.48640000
H      -44.38910000     -30.34560000     -69.16430000
