40
Properties=species:S:1:pos:R:3 #=T CELL(abcABC):=T 1.889726e+02=T 90.00000=T Traj:=T positionsangstrom=T Step:=T 0=T Bead:=T pbc="F F F"
C      -42.16410000     -35.09370000     -70.83670000
C      -42.93700000     -33.96500000     -71.09290000
C      -43.99480000     -34.09540000     -72.03390000
C      -44.38880000     -35.38170000     -72.49870000
C      -43.56160000     -36.50750000     -72.23080000
C      -42.45670000     -36.37590000     -71.39630000
H      -41.29190000     -34.96550000     -70.25710000
H      -44.53700000     -33.24560000     -72.33200000
H      -43.79900000     -37.53160000     -72.55560000
H      -41.87270000     -37.30870000     -71.08240000
C      -45.42960000     -35.65710000     -73.56960000
H      -45.12640000     -36.46170000     -74.27140000
H      -45.65510000     -34.71160000     -74.14070000
C      -42.62200000     -32.64640000     -70.44510000
H      -41.57900000     -32.33050000     -70.45430000
H      -43.22110000     -31.82040000     -70.86200000
S      -47.16130000     -36.19260000     -72.85110000
S      -42.99500000     -32.91080000     -68.67110000
C      -47.28760000     -35.73670000     -71.08910000
H      -47.82650000     -36.51020000     -70.62380000
H      -46.26160000     -35.70750000     -70.70130000
C      -44.66060000     -33.74060000     -68.59590000
H      -44.59650000     -34.34180000     -67.65460000
H      -44.78690000     -34.37100000     -69.46680000
C      -45.86130000     -32.76810000     -68.68730000
H      -46.68660000     -33.41500000     -68.80050000
H      -46.05710000     -32.22060000     -67.79540000
C      -48.00370000     -34.32580000     -70.91840000
H      -47.99740000     -34.16990000     -69.77890000
H      -49.04180000     -34.40010000     -71.21690000
C      -47.41830000     -33.15970000     -71.67650000
C      -47.72820000     -32.92630000     -72.94080000
C      -46.57490000     -32.12740000     -71.05080000
H      -48.26360000     -33.57500000     -73.64560000
C      -46.25490000     -31.15600000     -71.99090000
C      -45.85540000     -31.86330000     -69.83760000
C      -45.02800000     -30.75710000     -69.93750000
S      -47.05380000     -31.35750000     -73.49090000
S      -45.33040000     -29.76820000     -71.41290000
H      -44.53410000     -30.34880000     -69.02680000
