40
Properties=species:S:1:pos:R:3 #=T CELL(abcABC):=T 1.889726e+02=T 90.00000=T Traj:=T positionsangstrom=T Step:=T 0=T Bead:=T pbc="F F F"
C      -41.98360000     -35.66970000     -71.08470000
C      -42.64290000     -34.40650000     -71.23950000
C      -43.73480000     -34.32070000     -72.05820000
C      -44.32620000     -35.41160000     -72.65000000
C      -43.68720000     -36.66330000     -72.52080000
C      -42.46020000     -36.73340000     -71.80320000
H      -41.12160000     -35.76850000     -70.44240000
H      -44.22140000     -33.36110000     -72.21020000
H      -44.14090000     -37.56500000     -72.93310000
H      -42.01070000     -37.69680000     -71.64160000
C      -45.54480000     -35.28130000     -73.53090000
H      -45.40620000     -35.94330000     -74.34920000
H      -45.85970000     -34.26460000     -73.99170000
C      -42.25160000     -33.32840000     -70.39940000
H      -41.14140000     -33.16570000     -70.31040000
H      -42.57800000     -32.42300000     -70.83470000
S      -47.05350000     -35.94460000     -72.73690000
S      -42.76640000     -33.42870000     -68.58900000
C      -47.01840000     -35.47160000     -71.00230000
H      -47.45610000     -36.29670000     -70.42350000
H      -45.97230000     -35.24210000     -70.63960000
C      -44.54150000     -33.82370000     -68.74780000
H      -44.76450000     -34.47220000     -67.86430000
H      -44.67340000     -34.41730000     -69.71920000
C      -45.55560000     -32.60080000     -68.65270000
H      -46.52540000     -32.95280000     -68.42290000
H      -45.17420000     -31.97690000     -67.85430000
C      -47.88240000     -34.25020000     -70.77730000
H      -47.91980000     -33.98910000     -69.68960000
H      -48.81030000     -34.49460000     -71.20520000
C      -47.43090000     -33.01380000     -71.58830000
C      -47.87080000     -32.76410000     -72.84260000
C      -46.48540000     -32.00080000     -71.12490000
H      -48.58220000     -33.35310000     -73.49040000
C      -46.48710000     -30.90570000     -71.92680000
C      -45.73530000     -31.76100000     -69.90150000
C      -45.37020000     -30.39940000     -69.88310000
S      -47.49900000     -31.16460000     -73.41230000
S      -45.73680000     -29.49820000     -71.33560000
H      -44.90560000     -29.96620000     -69.05810000
