40
Properties=species:S:1:pos:R:3 #=T CELL(abcABC):=T 1.889726e+02=T 90.00000=T Traj:=T positionsangstrom=T Step:=T 0=T Bead:=T pbc="F F F"
C      -42.16860000     -35.47440000     -70.72490000
C      -42.89710000     -34.28250000     -70.95040000
C      -43.90160000     -34.26160000     -71.94810000
C      -44.19090000     -35.42610000     -72.65210000
C      -43.49360000     -36.61460000     -72.43190000
C      -42.51630000     -36.63980000     -71.38930000
H      -41.52690000     -35.58030000     -69.84690000
H      -44.55140000     -33.33630000     -72.06090000
H      -43.85040000     -37.58340000     -72.88290000
H      -42.00810000     -37.53220000     -71.25700000
C      -45.45640000     -35.33870000     -73.63050000
H      -45.33610000     -35.90890000     -74.55340000
H      -45.62080000     -34.24900000     -73.86700000
C      -42.40510000     -33.02340000     -70.26670000
H      -41.33090000     -33.13940000     -70.06060000
H      -42.53420000     -32.18350000     -70.84560000
S      -46.94040000     -36.20890000     -72.86760000
S      -43.20050000     -32.70740000     -68.63170000
C      -47.20130000     -35.48050000     -71.15240000
H      -47.80060000     -36.32330000     -70.71870000
H      -46.25390000     -35.32790000     -70.67480000
C      -44.73320000     -33.73570000     -68.60170000
H      -44.70010000     -34.33510000     -67.68310000
H      -44.73310000     -34.56050000     -69.38770000
C      -45.91390000     -32.76490000     -68.58530000
H      -46.82650000     -33.32290000     -68.48680000
H      -45.68210000     -32.26730000     -67.67580000
C      -48.08880000     -34.30710000     -71.09810000
H      -48.40750000     -34.18100000     -70.10880000
H      -49.06500000     -34.58610000     -71.61930000
C      -47.36780000     -33.15590000     -71.72770000
C      -47.59040000     -32.93880000     -73.05310000
C      -46.58640000     -32.08230000     -71.07340000
H      -48.22390000     -33.51440000     -73.69020000
C      -46.38160000     -30.99430000     -71.99390000
C      -45.92730000     -31.81380000     -69.78600000
C      -45.31730000     -30.53240000     -69.80400000
S      -47.03480000     -31.39740000     -73.59640000
S      -45.39550000     -29.67700000     -71.32410000
H      -44.77420000     -30.13880000     -68.96370000
