40
Properties=species:S:1:pos:R:3 #=T CELL(abcABC):=T 1.889726e+02=T 90.00000=T Traj:=T positionsangstrom=T Step:=T 0=T Bead:=T pbc="F F F"
C      -42.24030000     -35.64880000     -70.66310000
C      -42.81180000     -34.38790000     -70.91170000
C      -43.81470000     -34.22910000     -71.90280000
C      -44.17190000     -35.31200000     -72.73020000
C      -43.60390000     -36.59240000     -72.46260000
C      -42.70450000     -36.73210000     -71.43600000
H      -41.32610000     -35.82410000     -70.01430000
H      -44.17580000     -33.24820000     -72.11000000
H      -43.92570000     -37.47050000     -73.03210000
H      -42.21260000     -37.70520000     -71.30630000
C      -45.36320000     -35.24050000     -73.64480000
H      -45.23490000     -35.73040000     -74.57910000
H      -45.64050000     -34.18860000     -73.81140000
C      -42.41870000     -33.17580000     -70.08210000
H      -41.28100000     -33.29540000     -69.92630000
H      -42.67770000     -32.22980000     -70.65110000
S      -46.86610000     -36.09550000     -72.86990000
S      -43.21080000     -33.02100000     -68.46040000
C      -46.84160000     -35.47280000     -71.12460000
H      -47.13180000     -36.30700000     -70.43890000
H      -45.79420000     -35.25420000     -70.87110000
C      -44.91120000     -33.67700000     -68.65640000
H      -45.08690000     -34.51040000     -67.99820000
H      -44.81520000     -33.98910000     -69.68530000
C      -46.12850000     -32.70580000     -68.59710000
H      -47.06190000     -33.14090000     -68.48480000
H      -46.07110000     -32.06500000     -67.70410000
C      -47.83410000     -34.26140000     -71.01400000
H      -47.85590000     -33.88190000     -69.99910000
H      -48.86880000     -34.59180000     -71.32240000
C      -47.39470000     -33.05370000     -71.83280000
C      -47.77690000     -32.72890000     -73.11740000
C      -46.62320000     -32.02140000     -71.22390000
H      -48.28670000     -33.29440000     -73.84900000
C      -46.27740000     -30.98430000     -72.08360000
C      -46.16940000     -31.78840000     -69.86860000
C      -45.50550000     -30.57970000     -69.75180000
S      -46.86940000     -31.34480000     -73.68850000
S      -45.47180000     -29.67090000     -71.30700000
H      -45.24020000     -30.11790000     -68.79970000
