40
Properties=species:S:1:pos:R:3 #=T CELL(abcABC):=T 1.889726e+02=T 90.00000=T Traj:=T positionsangstrom=T Step:=T 0=T Bead:=T pbc="F F F"
C      -42.00560000     -35.28900000     -71.65760000
C      -42.78750000     -34.17660000     -71.57820000
C      -44.04270000     -34.12210000     -72.11470000
C      -44.57170000     -35.20180000     -72.84490000
C      -43.73540000     -36.27780000     -73.10880000
C      -42.52340000     -36.39400000     -72.38720000
H      -40.95960000     -35.36970000     -71.27900000
H      -44.62910000     -33.24130000     -72.11930000
H      -44.17660000     -37.07050000     -73.74540000
H      -42.01700000     -37.33500000     -72.33820000
C      -45.93750000     -35.05660000     -73.51100000
H      -45.81460000     -35.42380000     -74.56950000
H      -46.35340000     -34.07780000     -73.50690000
C      -42.29160000     -33.04500000     -70.80920000
H      -41.20660000     -33.16420000     -70.77810000
H      -42.59120000     -32.08000000     -71.18640000
S      -47.34380000     -36.00190000     -72.66100000
S      -42.57400000     -33.17570000     -68.94110000
C      -47.14790000     -35.55170000     -70.90510000
H      -47.56090000     -36.32360000     -70.20320000
H      -46.11010000     -35.39340000     -70.57520000
C      -44.20890000     -33.97480000     -68.62410000
H      -44.13710000     -34.41380000     -67.63800000
H      -44.33850000     -34.68550000     -69.46320000
C      -45.39750000     -32.99030000     -68.54840000
H      -46.31570000     -33.52700000     -68.48250000
H      -45.21440000     -32.34860000     -67.67970000
C      -48.06220000     -34.30420000     -70.53680000
H      -48.08130000     -34.21620000     -69.47120000
H      -48.97500000     -34.59760000     -70.95230000
C      -47.64170000     -33.01230000     -71.21720000
C      -48.16970000     -32.64460000     -72.42170000
C      -46.65780000     -32.06300000     -70.70070000
H      -49.04860000     -33.01720000     -72.94600000
C      -46.53720000     -30.99840000     -71.59970000
C      -45.68190000     -32.01200000     -69.66830000
C      -44.90430000     -30.87610000     -69.77140000
S      -47.48020000     -31.13280000     -73.06640000
S      -45.16230000     -30.04130000     -71.27290000
H      -44.05220000     -30.74600000     -69.13360000
