40
Properties=species:S:1:pos:R:3 #=T CELL(abcABC):=T 1.889726e+02=T 90.00000=T Traj:=T positionsangstrom=T Step:=T 0=T Bead:=T pbc="F F F"
C      -42.06450000     -35.16890000     -71.68530000
C      -42.83870000     -34.06170000     -71.51640000
C      -44.15640000     -34.05530000     -72.06640000
C      -44.56790000     -35.15080000     -72.79230000
C      -43.84330000     -36.38320000     -72.74380000
C      -42.52810000     -36.38480000     -72.20860000
H      -41.06920000     -35.22460000     -71.20050000
H      -44.89620000     -33.30430000     -72.12730000
H      -44.28920000     -37.17680000     -73.28830000
H      -41.79380000     -37.25880000     -72.29350000
C      -45.97810000     -35.14560000     -73.52930000
H      -45.91480000     -35.73260000     -74.55990000
H      -46.34020000     -34.24270000     -73.82410000
C      -42.40970000     -32.92310000     -70.70390000
H      -41.43590000     -32.54930000     -70.82570000
H      -43.04520000     -32.03040000     -70.97960000
S      -47.27870000     -36.04940000     -72.62260000
S      -42.67770000     -33.17220000     -68.82860000
C      -47.21000000     -35.54150000     -70.81810000
H      -47.50450000     -36.39470000     -70.22000000
H      -46.18650000     -35.36740000     -70.66800000
C      -44.31860000     -33.98680000     -68.89240000
H      -44.40040000     -34.76100000     -68.18530000
H      -44.33420000     -34.59510000     -69.78210000
C      -45.48370000     -33.02090000     -68.71560000
H      -46.41740000     -33.59860000     -68.72100000
H      -45.37330000     -32.59820000     -67.68470000
C      -48.05470000     -34.29790000     -70.57450000
H      -48.04290000     -34.18520000     -69.41390000
H      -49.15140000     -34.38540000     -70.81050000
C      -47.56260000     -33.01430000     -71.26270000
C      -48.10900000     -32.68870000     -72.43690000
C      -46.52950000     -32.06860000     -70.87270000
H      -48.96390000     -33.14630000     -72.94870000
C      -46.28710000     -31.07740000     -71.81930000
C      -45.57780000     -32.03490000     -69.78530000
C      -44.77800000     -30.93150000     -69.82760000
S      -47.47760000     -31.19000000     -73.14400000
S      -45.07890000     -29.95790000     -71.23470000
H      -44.01470000     -30.55960000     -69.14830000
