40
Properties=species:S:1:pos:R:3 #=T CELL(abcABC):=T 1.889726e+02=T 90.00000=T Traj:=T positionsangstrom=T Step:=T 0=T Bead:=T pbc="F F F"
C      -42.07670000     -35.68140000     -71.04480000
C      -42.74040000     -34.46830000     -71.31740000
C      -43.85210000     -34.36020000     -72.14970000
C      -44.36160000     -35.44610000     -72.77900000
C      -43.66170000     -36.68560000     -72.56120000
C      -42.60280000     -36.84400000     -71.66260000
H      -41.34110000     -35.78990000     -70.28130000
H      -44.34320000     -33.38830000     -72.20490000
H      -43.98770000     -37.53460000     -73.13640000
H      -42.04830000     -37.78720000     -71.65530000
C      -45.62160000     -35.32240000     -73.61690000
H      -45.42070000     -35.59600000     -74.63750000
H      -45.92200000     -34.28120000     -73.60910000
C      -42.31230000     -33.24570000     -70.47280000
H      -41.19640000     -33.32510000     -70.43870000
H      -42.64340000     -32.26800000     -70.80220000
S      -47.04180000     -36.15270000     -72.79420000
S      -42.76240000     -33.41310000     -68.69540000
C      -46.94460000     -35.58080000     -71.01520000
H      -47.37220000     -36.41440000     -70.44050000
H      -45.90970000     -35.49000000     -70.73200000
C      -44.57580000     -33.68930000     -68.88040000
H      -44.91680000     -34.46580000     -68.21520000
H      -44.69700000     -34.15110000     -69.85380000
C      -45.49130000     -32.48880000     -68.63960000
H      -46.48800000     -32.87940000     -68.25520000
H      -45.12750000     -31.94710000     -67.73600000
C      -47.70310000     -34.29110000     -70.65720000
H      -47.41890000     -34.09800000     -69.60350000
H      -48.83310000     -34.48460000     -70.72450000
C      -47.49720000     -32.97040000     -71.42780000
C      -48.00020000     -32.74220000     -72.66150000
C      -46.64700000     -31.82820000     -70.94400000
H      -48.68740000     -33.38000000     -73.22710000
C      -46.61160000     -30.74730000     -71.82140000
C      -45.68700000     -31.66070000     -69.89310000
C      -45.05300000     -30.41020000     -69.95070000
S      -47.42880000     -31.12760000     -73.35260000
S      -45.67730000     -29.47170000     -71.33120000
H      -44.39440000     -30.05400000     -69.20390000
