40
Properties=species:S:1:pos:R:3 #=T CELL(abcABC):=T 1.889726e+02=T 90.00000=T Traj:=T positionsangstrom=T Step:=T 0=T Bead:=T pbc="F F F"
C      -42.14360000     -35.51160000     -71.84910000
C      -42.82420000     -34.30390000     -71.67870000
C      -44.07650000     -34.18640000     -72.28950000
C      -44.66830000     -35.22240000     -73.00090000
C      -43.90000000     -36.36700000     -73.25170000
C      -42.61740000     -36.48730000     -72.70010000
H      -41.32180000     -35.60040000     -71.19160000
H      -44.41340000     -33.16730000     -72.15960000
H      -44.28980000     -37.18690000     -73.82360000
H      -41.99850000     -37.35140000     -72.98270000
C      -45.97140000     -35.01540000     -73.62550000
H      -46.05470000     -35.49780000     -74.56120000
H      -46.21460000     -33.91650000     -73.77560000
C      -42.20940000     -33.20910000     -70.83320000
H      -41.17700000     -33.01170000     -70.99800000
H      -42.58350000     -32.20060000     -71.07220000
S      -47.38090000     -35.84300000     -72.66030000
S      -42.60690000     -33.36720000     -69.00180000
C      -46.91100000     -35.55250000     -70.93420000
H      -47.10160000     -36.53330000     -70.39030000
H      -45.83300000     -35.30040000     -70.79240000
C      -44.36490000     -33.93860000     -68.83750000
H      -44.33820000     -34.70370000     -68.09160000
H      -44.59230000     -34.41210000     -69.74770000
C      -45.40180000     -32.80810000     -68.49700000
H      -46.36980000     -33.27990000     -68.25630000
H      -45.17940000     -32.31750000     -67.53300000
C      -47.75360000     -34.41530000     -70.39780000
H      -47.75390000     -34.47000000     -69.30010000
H      -48.83710000     -34.64890000     -70.58740000
C      -47.46870000     -32.99440000     -70.97030000
C      -48.17450000     -32.65570000     -72.07800000
C      -46.49860000     -31.97880000     -70.62480000
H      -48.77830000     -33.33790000     -72.64400000
C      -46.41970000     -30.99980000     -71.61030000
C      -45.53510000     -31.87010000     -69.60330000
C      -44.69870000     -30.78070000     -69.83310000
S      -47.71790000     -31.16310000     -72.83240000
S      -45.12860000     -29.85430000     -71.18910000
H      -43.98280000     -30.38610000     -69.08580000
