40
Properties=species:S:1:pos:R:3 #=T CELL(abcABC):=T 1.889726e+02=T 90.00000=T Traj:=T positionsangstrom=T Step:=T 0=T Bead:=T pbc="F F F"
C      -42.13260000     -35.73850000     -71.21250000
C      -42.83520000     -34.52770000     -71.33990000
C      -43.92400000     -34.39220000     -72.15840000
C      -44.41360000     -35.49370000     -72.95300000
C      -43.76700000     -36.74300000     -72.67510000
C      -42.63230000     -36.88660000     -71.77690000
H      -41.24190000     -35.75910000     -70.62720000
H      -44.31020000     -33.37790000     -72.27630000
H      -44.16900000     -37.66990000     -73.09640000
H      -42.21170000     -37.85110000     -71.54850000
C      -45.63210000     -35.37000000     -73.76610000
H      -45.37510000     -35.90760000     -74.77930000
H      -45.89370000     -34.35860000     -73.97240000
C      -42.29860000     -33.33980000     -70.54720000
H      -41.23240000     -33.36190000     -70.60180000
H      -42.72730000     -32.39620000     -70.99390000
S      -47.12420000     -36.14480000     -72.87640000
S      -42.77310000     -33.24740000     -68.67290000
C      -46.95840000     -35.60430000     -71.05660000
H      -47.38960000     -36.47450000     -70.48540000
H      -45.89620000     -35.59370000     -70.83980000
C      -44.59170000     -33.65020000     -68.65000000
H      -44.73450000     -34.30940000     -67.76090000
H      -44.78550000     -34.21590000     -69.53180000
C      -45.52140000     -32.41250000     -68.55910000
H      -46.49540000     -32.86220000     -68.41250000
H      -45.34610000     -31.83230000     -67.65350000
C      -47.67780000     -34.31210000     -70.71490000
H      -47.61530000     -34.20180000     -69.67260000
H      -48.73560000     -34.52990000     -70.75660000
C      -47.30740000     -33.00720000     -71.41200000
C      -47.89210000     -32.66380000     -72.59470000
C      -46.45530000     -31.92850000     -70.85440000
H      -48.45310000     -33.28450000     -73.20980000
C      -46.49050000     -30.82580000     -71.78790000
C      -45.68740000     -31.55660000     -69.71290000
C      -45.13500000     -30.29030000     -69.83230000
S      -47.64580000     -31.05320000     -73.18910000
S      -45.39060000     -29.59890000     -71.37510000
H      -44.43860000     -29.85610000     -69.15100000
