40
Properties=species:S:1:pos:R:3 #=T CELL(abcABC):=T 1.889726e+02=T 90.00000=T Traj:=T positionsangstrom=T Step:=T 0=T Bead:=T pbc="F F F"
C      -42.23540000     -35.48870000     -71.33250000
C      -42.95470000     -34.32400000     -71.33300000
C      -44.00300000     -34.16190000     -72.25640000
C      -44.51810000     -35.29830000     -72.86520000
C      -43.84910000     -36.54750000     -72.67840000
C      -42.67940000     -36.61330000     -71.98480000
H      -41.33080000     -35.46970000     -70.77610000
H      -44.35610000     -33.15400000     -72.47330000
H      -44.34620000     -37.44680000     -73.08440000
H      -42.27280000     -37.59810000     -71.89660000
C      -45.72600000     -35.31740000     -73.65340000
H      -45.69710000     -35.94230000     -74.45800000
H      -45.79840000     -34.25500000     -74.04100000
C      -42.49750000     -33.05380000     -70.57370000
H      -41.36610000     -33.02830000     -70.68030000
H      -42.89080000     -32.13760000     -71.01070000
S      -47.16090000     -35.98200000     -72.71890000
S      -42.65040000     -33.19950000     -68.79710000
C      -46.98050000     -35.48280000     -70.94880000
H      -47.32340000     -36.36550000     -70.47260000
H      -45.91330000     -35.33710000     -70.75180000
C      -44.38990000     -33.82240000     -68.66500000
H      -44.42320000     -34.35500000     -67.76430000
H      -44.54280000     -34.55560000     -69.43620000
C      -45.54740000     -32.73210000     -68.61170000
H      -46.46630000     -33.35440000     -68.44580000
H      -45.39930000     -32.04420000     -67.74020000
C      -47.90490000     -34.30940000     -70.55270000
H      -47.72350000     -34.19130000     -69.46990000
H      -48.96430000     -34.59550000     -70.84900000
C      -47.50770000     -32.99170000     -71.34600000
C      -47.91970000     -32.73550000     -72.61250000
C      -46.62110000     -31.99500000     -70.79310000
H      -48.56930000     -33.33000000     -73.25710000
C      -46.52320000     -30.96060000     -71.73830000
C      -45.66780000     -31.81750000     -69.71530000
C      -44.96170000     -30.67440000     -69.84790000
S      -47.47520000     -31.17110000     -73.22780000
S      -45.20350000     -29.86200000     -71.39340000
H      -44.25870000     -30.22470000     -69.14180000
