40
Properties=species:S:1:pos:R:3 #=T CELL(abcABC):=T 1.889726e+02=T 90.00000=T Traj:=T positionsangstrom=T Step:=T 0=T Bead:=T pbc="F F F"
C      -42.24980000     -35.62930000     -72.12650000
C      -42.77430000     -34.29450000     -71.97260000
C      -44.05660000     -34.03650000     -72.63570000
C      -44.71130000     -35.04580000     -73.32390000
C      -44.22090000     -36.34890000     -73.33830000
C      -42.97930000     -36.61660000     -72.80310000
H      -41.29290000     -35.97570000     -71.72850000
H      -44.49570000     -33.03140000     -72.50550000
H      -44.75790000     -37.19200000     -73.72860000
H      -42.50310000     -37.59620000     -72.99570000
C      -46.20080000     -34.92120000     -73.74260000
H      -46.44550000     -35.40670000     -74.64430000
H      -46.46040000     -33.77170000     -73.76980000
C      -42.16380000     -33.27690000     -71.10200000
H      -41.09520000     -33.27430000     -71.20130000
H      -42.61560000     -32.26530000     -71.29430000
S      -47.34360000     -35.83330000     -72.59350000
S      -42.36990000     -33.79230000     -69.25960000
C      -46.92160000     -35.55820000     -70.80780000
H      -47.18430000     -36.53770000     -70.35000000
H      -45.81560000     -35.46270000     -70.91170000
C      -44.22050000     -33.94450000     -68.97030000
H      -44.40810000     -34.83220000     -68.35960000
H      -44.66800000     -34.09410000     -69.92280000
C      -44.90850000     -32.67060000     -68.38160000
H      -45.82160000     -32.84690000     -67.86050000
H      -44.17200000     -32.05530000     -67.76840000
C      -47.61650000     -34.37070000     -70.13000000
H      -47.05430000     -34.43990000     -69.14050000
H      -48.67150000     -34.58940000     -69.90990000
C      -47.41240000     -33.02290000     -70.76030000
C      -48.27990000     -32.64790000     -71.75540000
C      -46.34830000     -32.05880000     -70.53990000
H      -49.15150000     -33.16300000     -72.05870000
C      -46.43360000     -30.95730000     -71.42560000
C      -45.33160000     -31.80810000     -69.55250000
C      -44.67420000     -30.61300000     -69.68580000
S      -47.82740000     -31.10310000     -72.54240000
S      -45.35280000     -29.69470000     -71.11730000
H      -43.90540000     -30.22700000     -69.05110000
