40
Properties=species:S:1:pos:R:3 #=T CELL(abcABC):=T 1.889726e+02=T 90.00000=T Traj:=T positionsangstrom=T Step:=T 0=T Bead:=T pbc="F F F"
C      -46.13320000     -30.92060000     -73.85990000
C      -46.29860000     -30.41000000     -72.52230000
C      -45.22010000     -30.11580000     -71.76830000
C      -43.91160000     -30.23850000     -72.21790000
C      -43.72100000     -30.97860000     -73.40940000
C      -44.78950000     -31.18610000     -74.25970000
H      -46.98900000     -31.06550000     -74.52810000
H      -45.31550000     -29.70690000     -70.72920000
H      -42.71370000     -31.29670000     -73.68980000
H      -44.52950000     -31.50970000     -75.23960000
C      -42.75080000     -29.94690000     -71.33800000
H      -42.74580000     -28.93930000     -71.00870000
H      -41.79590000     -29.95900000     -71.93490000
C      -47.73950000     -30.28280000     -71.95920000
H      -47.81530000     -29.27360000     -71.48760000
H      -48.55850000     -30.42500000     -72.59930000
S      -42.59560000     -31.01920000     -69.74400000
S      -48.05900000     -31.35880000     -70.49570000
C      -42.73090000     -32.85200000     -70.18680000
H      -41.98320000     -33.14990000     -70.93930000
H      -42.53050000     -33.38070000     -69.27060000
C      -47.68450000     -32.99830000     -71.17790000
H      -46.73190000     -33.03910000     -71.69590000
H      -48.44640000     -33.22350000     -71.93110000
C      -47.59310000     -34.08650000     -70.15870000
H      -47.00410000     -33.84390000     -69.25900000
H      -48.54060000     -34.26350000     -69.72020000
C      -44.13520000     -33.29000000     -70.65840000
H      -44.30370000     -32.83970000     -71.60100000
H      -44.95190000     -32.80300000     -70.12290000
C      -44.34930000     -34.77390000     -70.80570000
C      -43.25800000     -35.59980000     -71.04890000
C      -45.54420000     -35.53960000     -70.91130000
H      -42.23540000     -35.31690000     -70.70610000
C      -45.35650000     -36.86110000     -71.26980000
C      -46.95970000     -35.34000000     -70.71130000
C      -47.74730000     -36.48930000     -70.79300000
S      -43.63730000     -37.23030000     -71.39190000
S      -46.77460000     -37.91480000     -71.32280000
H      -48.79490000     -36.46360000     -70.60490000
