40
Properties=species:S:1:pos:R:3 #=T CELL(abcABC):=T 1.889726e+02=T 90.00000=T Traj:=T positionsangstrom=T Step:=T 0=T Bead:=T pbc="F F F"
C      -42.34840000     -35.54880000     -71.89470000
C      -42.96750000     -34.29450000     -71.76200000
C      -44.21150000     -34.12540000     -72.38520000
C      -44.83170000     -35.15050000     -73.15380000
C      -44.12230000     -36.33250000     -73.33080000
C      -42.91700000     -36.54880000     -72.69170000
H      -41.41700000     -35.79880000     -71.37240000
H      -44.78670000     -33.23940000     -72.27870000
H      -44.57220000     -37.15710000     -73.93230000
H      -42.49070000     -37.53900000     -72.62120000
C      -46.20080000     -35.01390000     -73.74050000
H      -46.24130000     -35.38580000     -74.88150000
H      -46.61330000     -34.02310000     -73.83560000
C      -42.33170000     -33.27460000     -70.78730000
H      -41.23050000     -33.18360000     -71.05200000
H      -42.76210000     -32.31550000     -70.95550000
S      -47.49210000     -35.84300000     -72.75480000
S      -42.32430000     -33.77310000     -69.01450000
C      -46.86430000     -35.64810000     -70.92810000
H      -47.25970000     -36.62560000     -70.51490000
H      -45.73850000     -35.69800000     -71.03050000
C      -44.10580000     -33.97940000     -68.77210000
H      -44.22980000     -34.56400000     -67.87900000
H      -44.48680000     -34.65500000     -69.52620000
C      -44.82970000     -32.67990000     -68.56240000
H      -45.81030000     -32.99490000     -68.10770000
H      -44.36940000     -32.07960000     -67.80050000
C      -47.44870000     -34.42310000     -70.22210000
H      -47.01550000     -34.37640000     -69.20870000
H      -48.57740000     -34.59900000     -70.11470000
C      -47.24930000     -33.05380000     -70.98200000
C      -48.05420000     -32.73060000     -72.01730000
C      -46.23510000     -32.01890000     -70.68610000
H      -48.91720000     -33.30240000     -72.41650000
C      -46.37570000     -30.96610000     -71.57460000
C      -45.22890000     -31.74230000     -69.71640000
C      -44.79450000     -30.44010000     -69.76250000
S      -47.75820000     -31.16800000     -72.65680000
S      -45.46270000     -29.56000000     -71.13200000
H      -44.04070000     -29.96280000     -69.23790000
