40
Properties=species:S:1:pos:R:3 #=T CELL(abcABC):=T 1.889726e+02=T 90.00000=T Traj:=T positionsangstrom=T Step:=T 0=T Bead:=T pbc="F F F"
C      -45.52420000     -30.32930000     -68.08740000
C      -44.96420000     -31.62900000     -68.17670000
C      -43.95070000     -31.83790000     -69.12480000
C      -43.58980000     -30.86090000     -70.07420000
C      -44.21040000     -29.60600000     -70.04250000
C      -45.09850000     -29.34840000     -68.97730000
H      -46.23510000     -30.05540000     -67.25840000
H      -43.46180000     -32.80710000     -69.15790000
H      -43.98910000     -28.90190000     -70.84870000
H      -45.45610000     -28.35060000     -68.72040000
C      -42.45540000     -31.23410000     -71.02560000
H      -41.70320000     -31.88740000     -70.43040000
H      -41.99800000     -30.37040000     -71.48200000
C      -45.53700000     -32.67460000     -67.29370000
H      -44.92020000     -33.60340000     -67.50870000
H      -45.52370000     -32.28110000     -66.24430000
S      -43.10270000     -32.42050000     -72.36250000
S      -47.33630000     -32.94560000     -67.86520000
C      -44.42970000     -31.52170000     -73.31100000
H      -44.52620000     -30.63550000     -72.68150000
H      -44.10800000     -31.33400000     -74.39440000
C      -47.06750000     -34.34880000     -69.11130000
H      -47.92030000     -34.93970000     -69.31810000
H      -46.34410000     -35.03860000     -68.64320000
C      -46.62360000     -33.83340000     -70.49720000
H      -47.43040000     -33.19070000     -70.95870000
H      -45.68790000     -33.19590000     -70.37300000
C      -45.76680000     -32.27890000     -73.39410000
H      -46.51860000     -31.76920000     -74.14300000
H      -46.24370000     -32.14210000     -72.38900000
C      -45.71190000     -33.70910000     -73.79500000
C      -45.22950000     -34.10420000     -75.06410000
C      -45.98460000     -34.78200000     -72.92220000
H      -44.78210000     -33.43140000     -75.80780000
C      -45.72940000     -35.99300000     -73.54930000
C      -46.27880000     -34.92810000     -71.52200000
C      -46.36520000     -36.25480000     -71.17990000
S      -45.16850000     -35.79630000     -75.17910000
S      -46.06180000     -37.34470000     -72.52490000
H      -46.71140000     -36.67110000     -70.25940000
