40
Properties=species:S:1:pos:R:3 #=T CELL(abcABC):=T 1.889726e+02=T 90.00000=T Traj:=T positionsangstrom=T Step:=T 0=T Bead:=T pbc="F F F"
C      -43.10120000     -34.65360000     -74.95760000
C      -43.15810000     -34.87180000     -73.54580000
C      -44.28060000     -35.53880000     -73.02180000
C      -45.34380000     -35.87450000     -73.86890000
C      -45.34940000     -35.54440000     -75.25000000
C      -44.19970000     -34.96210000     -75.79190000
H      -42.07760000     -34.50800000     -75.26140000
H      -44.30040000     -35.71840000     -71.96420000
H      -46.18240000     -35.70400000     -75.93570000
H      -44.10510000     -34.95790000     -76.85400000
C      -46.55200000     -36.66180000     -73.33980000
H      -46.58670000     -37.76150000     -73.64340000
H      -47.37230000     -36.16500000     -73.90390000
C      -41.84130000     -34.52750000     -72.82690000
H      -41.15190000     -35.25780000     -73.19150000
H      -41.50340000     -33.53980000     -73.28220000
S      -46.85130000     -36.48050000     -71.48910000
S      -41.83920000     -34.53320000     -71.02080000
C      -46.94220000     -34.62130000     -71.28010000
H      -46.07870000     -34.15440000     -71.70390000
H      -47.77150000     -34.17970000     -71.89900000
C      -42.56370000     -32.87220000     -70.67870000
H      -42.52560000     -32.19450000     -71.54000000
H      -41.93160000     -32.42310000     -69.91690000
C      -44.10330000     -33.01990000     -70.35270000
H      -44.50500000     -33.46750000     -71.22240000
H      -44.28060000     -33.71570000     -69.46820000
C      -47.07290000     -34.28440000     -69.78000000
H      -46.13440000     -34.56750000     -69.34930000
H      -47.85110000     -34.88390000     -69.35650000
C      -47.30620000     -32.79970000     -69.52070000
C      -48.43800000     -32.27830000     -69.01560000
C      -46.32240000     -31.76680000     -69.93030000
H      -49.39940000     -32.84510000     -68.86200000
C      -46.72960000     -30.48260000     -69.56930000
C      -44.87260000     -31.73050000     -70.17650000
C      -44.29500000     -30.48490000     -70.02750000
S      -48.43800000     -30.46140000     -69.01330000
S      -45.51160000     -29.28300000     -69.65410000
H      -43.28980000     -30.15790000     -70.04270000
