40
Properties=species:S:1:pos:R:3 #=T CELL(abcABC):=T 1.889726e+02=T 90.00000=T Traj:=T positionsangstrom=T Step:=T 0=T Bead:=T pbc="F F F"
C      -45.80730000     -31.13480000     -73.96680000
C      -46.20430000     -30.81720000     -72.67950000
C      -45.23470000     -30.41860000     -71.65850000
C      -43.91470000     -30.31630000     -72.06120000
C      -43.53280000     -30.57280000     -73.38450000
C      -44.44810000     -31.03520000     -74.36230000
H      -46.58720000     -31.38140000     -74.72420000
H      -45.52350000     -30.12840000     -70.60310000
H      -42.50510000     -30.69040000     -73.67160000
H      -44.07230000     -31.24270000     -75.39530000
C      -42.86250000     -29.86260000     -71.00820000
H      -43.13060000     -28.88610000     -70.76340000
H      -41.87350000     -29.79170000     -71.39030000
C      -47.71770000     -30.62190000     -72.45560000
H      -48.00090000     -29.51450000     -72.38670000
H      -48.27680000     -31.00840000     -73.31630000
S      -42.75050000     -31.00070000     -69.57370000
S      -48.26980000     -31.40420000     -70.84210000
C      -42.80630000     -32.66180000     -70.45100000
H      -42.61900000     -32.56490000     -71.57030000
H      -42.00010000     -33.32330000     -70.00800000
C      -48.03850000     -33.19920000     -71.31270000
H      -47.38850000     -33.31680000     -72.11400000
H      -48.96310000     -33.72140000     -71.62540000
C      -47.61040000     -33.99770000     -70.09290000
H      -47.03560000     -33.41380000     -69.40020000
H      -48.46510000     -34.34120000     -69.40320000
C      -44.18460000     -33.33680000     -70.29590000
H      -44.92770000     -32.84410000     -70.89900000
H      -44.57140000     -33.25930000     -69.25310000
C      -44.19250000     -34.78280000     -70.77670000
C      -43.20420000     -35.46820000     -71.37250000
C      -45.45490000     -35.55280000     -70.72750000
H      -42.19780000     -35.09960000     -71.67580000
C      -45.21220000     -36.87550000     -71.01510000
C      -46.90950000     -35.28840000     -70.44510000
C      -47.65520000     -36.39860000     -70.60210000
S      -43.66800000     -37.12570000     -71.64940000
S      -46.70170000     -37.81630000     -70.99110000
H      -48.67240000     -36.43460000     -70.25180000
