40
Properties=species:S:1:pos:R:3 #=T CELL(abcABC):=T 1.889726e+02=T 90.00000=T Traj:=T positionsangstrom=T Step:=T 0=T Bead:=T pbc="F F F"
C      -43.26030000     -34.46710000     -75.12380000
C      -43.20630000     -34.69240000     -73.72720000
C      -44.15990000     -35.48600000     -73.16420000
C      -45.34570000     -35.86230000     -73.81850000
C      -45.46410000     -35.55360000     -75.14140000
C      -44.40130000     -34.85990000     -75.80530000
H      -42.50420000     -33.96280000     -75.64790000
H      -44.20480000     -35.68390000     -72.05900000
H      -46.44200000     -35.66260000     -75.60010000
H      -44.39510000     -34.70260000     -76.92150000
C      -46.46970000     -36.61820000     -73.18800000
H      -46.16270000     -37.63860000     -73.32400000
H      -47.52750000     -36.46670000     -73.61930000
C      -41.87280000     -34.24370000     -73.00420000
H      -41.08090000     -34.97500000     -73.40570000
H      -41.76120000     -33.17690000     -73.21460000
S      -46.52110000     -36.39440000     -71.38110000
S      -41.78460000     -34.54680000     -71.22140000
C      -47.39450000     -34.82170000     -71.18720000
H      -47.07840000     -34.08380000     -71.94780000
H      -48.47480000     -34.86600000     -71.33170000
C      -42.55790000     -33.01670000     -70.59170000
H      -42.34410000     -32.19060000     -71.28230000
H      -42.01380000     -32.79700000     -69.71250000
C      -44.12350000     -33.13280000     -70.23830000
H      -44.57070000     -33.58210000     -71.15690000
H      -44.16880000     -33.83930000     -69.43370000
C      -47.07090000     -34.35080000     -69.72130000
H      -46.06200000     -34.70090000     -69.53020000
H      -47.71690000     -34.93280000     -69.04320000
C      -47.33390000     -32.83780000     -69.50140000
C      -48.54090000     -32.24940000     -69.22270000
C      -46.30430000     -31.85490000     -69.68120000
H      -49.44100000     -32.69690000     -68.93980000
C      -46.77660000     -30.54740000     -69.57800000
C      -44.88330000     -31.85620000     -70.01480000
C      -44.29930000     -30.59530000     -70.06430000
S      -48.42890000     -30.48110000     -69.08680000
S      -45.46540000     -29.30680000     -69.57480000
H      -43.26800000     -30.31440000     -70.38110000
