40
Properties=species:S:1:pos:R:3 #=T CELL(abcABC):=T 1.889726e+02=T 90.00000=T Traj:=T positionsangstrom=T Step:=T 0=T Bead:=T pbc="F F F"
C      -45.92360000     -31.03730000     -73.70950000
C      -46.27900000     -30.49050000     -72.48360000
C      -45.26560000     -30.17420000     -71.52150000
C      -43.94810000     -30.36360000     -71.92960000
C      -43.57640000     -30.84780000     -73.17060000
C      -44.60390000     -31.23270000     -74.13020000
H      -46.69510000     -31.04760000     -74.49530000
H      -45.52940000     -29.70230000     -70.58140000
H      -42.55980000     -31.15330000     -73.37260000
H      -44.35570000     -31.79250000     -74.98450000
C      -42.87740000     -29.89580000     -71.00450000
H      -43.30120000     -28.90080000     -70.76010000
H      -41.89560000     -29.81170000     -71.53320000
C      -47.70540000     -30.24850000     -72.14790000
H      -47.86350000     -29.23960000     -71.67740000
H      -48.30950000     -30.37270000     -73.12280000
S      -42.85890000     -30.93110000     -69.44810000
S      -48.43300000     -31.48390000     -71.04200000
C      -42.79310000     -32.75530000     -70.08810000
H      -42.44930000     -32.72290000     -71.14770000
H      -42.05900000     -33.14760000     -69.42140000
C      -47.39840000     -32.98160000     -71.40590000
H      -46.39170000     -32.68270000     -71.53430000
H      -47.88590000     -33.56520000     -72.24840000
C      -47.60150000     -34.04290000     -70.22570000
H      -47.29260000     -33.56300000     -69.31610000
H      -48.66480000     -34.16860000     -70.19200000
C      -44.11480000     -33.48660000     -70.00320000
H      -44.77970000     -32.76470000     -70.46260000
H      -44.45030000     -33.64320000     -68.91510000
C      -44.15600000     -34.90710000     -70.63600000
C      -43.12380000     -35.59720000     -71.17710000
C      -45.43440000     -35.55730000     -70.72820000
H      -42.18160000     -35.12990000     -71.39000000
C      -45.28540000     -36.86820000     -71.30990000
C      -46.88740000     -35.35610000     -70.52230000
C      -47.61570000     -36.44060000     -70.93970000
S      -43.58620000     -37.18210000     -71.69440000
S      -46.70880000     -37.80350000     -71.52640000
H      -48.65300000     -36.53940000     -70.75950000
