40
Properties=species:S:1:pos:R:3 #=T CELL(abcABC):=T 1.889726e+02=T 90.00000=T Traj:=T positionsangstrom=T Step:=T 0=T Bead:=T pbc="F F F"
C      -43.82810000     -33.33610000     -74.23660000
C      -43.25520000     -34.45990000     -73.52920000
C      -43.97760000     -35.59790000     -73.18670000
C      -45.30950000     -35.69500000     -73.66310000
C      -45.92900000     -34.58200000     -74.25690000
C      -45.16820000     -33.50590000     -74.63840000
H      -43.10750000     -32.59460000     -74.48020000
H      -43.51560000     -36.38560000     -72.63510000
H      -47.03890000     -34.50130000     -74.45280000
H      -45.59530000     -32.62350000     -75.14260000
C      -46.25050000     -36.85250000     -73.23080000
H      -45.77810000     -37.83460000     -73.31390000
H      -47.23010000     -36.82120000     -73.83780000
C      -41.72280000     -34.47920000     -73.22190000
H      -41.41830000     -35.52830000     -73.29420000
H      -41.14660000     -33.82570000     -73.87660000
S      -46.71590000     -36.89220000     -71.26790000
S      -41.43550000     -34.14000000     -71.35120000
C      -47.30710000     -35.18220000     -70.90010000
H      -47.03150000     -34.56750000     -71.70010000
H      -48.41020000     -35.18260000     -70.79470000
C      -42.53560000     -32.72340000     -71.08380000
H      -42.61790000     -32.21840000     -72.01870000
H      -42.10950000     -32.03290000     -70.42840000
C      -43.89930000     -33.18450000     -70.62800000
H      -44.28060000     -33.84940000     -71.41970000
H      -43.78570000     -33.84400000     -69.79680000
C      -46.76620000     -34.61450000     -69.60430000
H      -45.69810000     -34.83980000     -69.46750000
H      -47.20170000     -35.10410000     -68.67270000
C      -47.09560000     -33.14310000     -69.54680000
C      -48.35740000     -32.63560000     -69.27020000
C      -46.13190000     -32.06100000     -69.80710000
H      -49.21140000     -33.17550000     -69.01390000
C      -46.73280000     -30.77160000     -69.66640000
C      -44.78840000     -31.96780000     -70.30570000
C      -44.35610000     -30.65050000     -70.32490000
S      -48.44500000     -30.86990000     -69.22620000
S      -45.64270000     -29.46650000     -70.09460000
H      -43.43490000     -30.11200000     -70.63220000
