40
Properties=species:S:1:pos:R:3 #=T CELL(abcABC):=T 1.889726e+02=T 90.00000=T Traj:=T positionsangstrom=T Step:=T 0=T Bead:=T pbc="F F F"
C      -45.90500000     -30.95720000     -73.75340000
C      -46.20390000     -30.33480000     -72.53560000
C      -45.19720000     -29.86520000     -71.69770000
C      -43.87740000     -30.23320000     -71.99190000
C      -43.58890000     -30.84080000     -73.23090000
C      -44.58050000     -31.12040000     -74.15230000
H      -46.70910000     -31.48670000     -74.24460000
H      -45.47780000     -29.55260000     -70.74540000
H      -42.55240000     -31.04170000     -73.43730000
H      -44.36150000     -31.34080000     -75.23230000
C      -42.88800000     -30.03520000     -70.91630000
H      -42.75410000     -29.03430000     -70.58600000
H      -41.86570000     -30.19000000     -71.33590000
C      -47.68400000     -30.22610000     -72.17190000
H      -47.86030000     -29.22630000     -71.78370000
H      -48.17840000     -30.24400000     -73.11760000
S      -43.03320000     -31.10830000     -69.40770000
S      -48.37490000     -31.46950000     -70.94280000
C      -42.95780000     -32.77040000     -70.27560000
H      -43.07970000     -32.65390000     -71.38140000
H      -41.95270000     -33.10800000     -70.12410000
C      -47.60440000     -33.08070000     -71.45660000
H      -46.60800000     -32.85320000     -71.82340000
H      -48.11460000     -33.51040000     -72.32630000
C      -47.41250000     -33.96580000     -70.24790000
H      -46.61570000     -33.62850000     -69.50490000
H      -48.30120000     -34.16770000     -69.59860000
C      -44.15940000     -33.59440000     -69.77570000
H      -45.01060000     -33.04220000     -70.07260000
H      -44.07630000     -33.70680000     -68.71290000
C      -44.22020000     -35.02500000     -70.39030000
C      -43.09550000     -35.66990000     -70.72830000
C      -45.44150000     -35.65170000     -70.82430000
H      -42.14620000     -35.28530000     -70.57780000
C      -45.23200000     -36.86440000     -71.47570000
C      -46.83900000     -35.34680000     -70.69130000
C      -47.62320000     -36.34510000     -71.12520000
S      -43.53260000     -37.19230000     -71.50970000
S      -46.70690000     -37.75180000     -71.73970000
H      -48.66970000     -36.25850000     -71.17680000
