40
Properties=species:S:1:pos:R:3 #=T CELL(abcABC):=T 1.889726e+02=T 90.00000=T Traj:=T positionsangstrom=T Step:=T 0=T Bead:=T pbc="F F F"
C      -44.14530000     -33.72160000     -74.61480000
C      -43.51490000     -34.73240000     -73.86950000
C      -44.24990000     -35.76070000     -73.27350000
C      -45.63400000     -35.69380000     -73.47720000
C      -46.27800000     -34.69550000     -74.23860000
C      -45.56130000     -33.65420000     -74.75400000
H      -43.49590000     -32.94620000     -75.09870000
H      -43.77220000     -36.49710000     -72.67600000
H      -47.34630000     -34.75890000     -74.42880000
H      -45.99900000     -33.02240000     -75.43300000
C      -46.51020000     -36.79560000     -72.92840000
H      -46.11560000     -37.76530000     -73.21400000
H      -47.49030000     -36.67830000     -73.42350000
C      -42.01260000     -34.60760000     -73.71470000
H      -41.56720000     -35.54270000     -73.93440000
H      -41.75590000     -33.74980000     -74.32870000
S      -46.76710000     -36.68900000     -71.12090000
S      -41.39240000     -34.21220000     -71.85070000
C      -47.00860000     -34.91890000     -70.82350000
H      -46.37990000     -34.36500000     -71.48960000
H      -48.10340000     -34.59970000     -70.93620000
C      -42.45360000     -32.72700000     -71.24210000
H      -42.48010000     -32.14570000     -72.11050000
H      -41.80120000     -32.21850000     -70.48920000
C      -43.78510000     -33.05590000     -70.68660000
H      -44.34170000     -33.66300000     -71.42530000
H      -43.62700000     -33.68370000     -69.82550000
C      -46.42050000     -34.53410000     -69.36900000
H      -45.38300000     -34.66940000     -69.37670000
H      -46.80910000     -35.21660000     -68.70910000
C      -46.72230000     -33.11130000     -69.16080000
C      -47.96570000     -32.65810000     -68.66230000
C      -45.96350000     -32.01400000     -69.64340000
H      -48.75990000     -33.17650000     -68.08700000
C      -46.60010000     -30.76470000     -69.49970000
C      -44.70900000     -31.86160000     -70.33190000
C      -44.44370000     -30.55590000     -70.64860000
S      -48.20460000     -30.84130000     -68.85150000
S      -45.65760000     -29.47310000     -70.14390000
H      -43.54720000     -30.19470000     -71.06780000
