40
Properties=species:S:1:pos:R:3 #=T CELL(abcABC):=T 1.889726e+02=T 90.00000=T Traj:=T positionsangstrom=T Step:=T 0=T Bead:=T pbc="F F F"
C      -43.71970000     -34.88170000     -69.45940000
C      -44.91860000     -35.29090000     -68.83630000
C      -45.76430000     -36.18130000     -69.54550000
C      -45.43930000     -36.55860000     -70.87020000
C      -44.21550000     -36.10820000     -71.40410000
C      -43.30680000     -35.26690000     -70.73830000
H      -43.12620000     -34.12330000     -69.01160000
H      -46.78400000     -36.41490000     -69.20300000
H      -43.92120000     -36.56150000     -72.34510000
H      -42.43970000     -34.81310000     -71.14200000
C      -46.33110000     -37.40100000     -71.72810000
H      -46.94860000     -38.17110000     -71.23940000
H      -45.73490000     -37.82130000     -72.53530000
C      -45.31170000     -34.60520000     -67.54070000
H      -45.80540000     -35.26490000     -66.92190000
H      -44.52460000     -34.09370000     -67.09540000
S      -47.61100000     -36.30340000     -72.56330000
S      -46.73580000     -33.40430000     -67.87170000
C      -46.45830000     -35.00570000     -73.41930000
H      -45.53640000     -35.56110000     -73.60190000
H      -46.99490000     -34.72680000     -74.37050000
C      -45.94440000     -32.23680000     -69.18610000
H      -45.05180000     -32.82830000     -69.63540000
H      -45.43870000     -31.49980000     -68.59190000
C      -46.75110000     -31.52930000     -70.33700000
H      -47.39180000     -32.27590000     -70.81510000
H      -47.58500000     -30.90210000     -69.97430000
C      -46.28990000     -33.80820000     -72.56060000
H      -46.01580000     -34.17390000     -71.52450000
H      -47.25700000     -33.25720000     -72.61590000
C      -45.24740000     -32.79430000     -73.00940000
C      -44.18450000     -33.11700000     -73.85740000
C      -45.17630000     -31.50180000     -72.41530000
H      -43.93650000     -34.08800000     -74.28270000
C      -44.13460000     -30.70400000     -72.88540000
C      -45.81770000     -30.89870000     -71.26020000
C      -45.36810000     -29.58700000     -71.09990000
S      -43.15240000     -31.74230000     -73.99200000
S      -44.01250000     -29.14200000     -72.23400000
H      -45.72870000     -28.93180000     -70.33480000
