40
Properties=species:S:1:pos:R:3 #=T CELL(abcABC):=T 1.889726e+02=T 90.00000=T Traj:=T positionsangstrom=T Step:=T 0=T Bead:=T pbc="F F F"
C      -44.16560000     -33.35230000     -74.39990000
C      -43.44370000     -34.46560000     -73.81680000
C      -44.17570000     -35.53410000     -73.30970000
C      -45.58550000     -35.50600000     -73.38480000
C      -46.25810000     -34.50370000     -74.14420000
C      -45.49960000     -33.43600000     -74.69280000
H      -43.53040000     -32.48600000     -74.52120000
H      -43.66220000     -36.36550000     -72.85540000
H      -47.28850000     -34.43180000     -74.36600000
H      -46.16530000     -32.68780000     -75.13760000
C      -46.37120000     -36.64840000     -72.91440000
H      -45.87380000     -37.57120000     -73.18260000
H      -47.36990000     -36.70560000     -73.37940000
C      -41.96370000     -34.36850000     -73.54230000
H      -41.45460000     -35.29500000     -73.95080000
H      -41.43750000     -33.52670000     -74.06270000
S      -46.63080000     -36.85510000     -71.07790000
S      -41.43010000     -34.21980000     -71.75580000
C      -47.06350000     -35.14330000     -70.66150000
H      -46.57740000     -34.55380000     -71.49040000
H      -48.06930000     -34.86320000     -70.77490000
C      -42.45040000     -32.81490000     -71.11290000
H      -42.45270000     -31.91630000     -71.80080000
H      -42.01250000     -32.37100000     -70.18060000
C      -43.89950000     -33.17450000     -70.79200000
H      -44.33560000     -33.78150000     -71.62700000
H      -43.82950000     -33.82220000     -69.88810000
C      -46.70650000     -34.70530000     -69.25650000
H      -45.64190000     -34.96290000     -68.84180000
H      -47.42280000     -35.18100000     -68.46900000
C      -46.83780000     -33.20520000     -69.19320000
C      -48.04540000     -32.60090000     -68.73250000
C      -46.02020000     -32.09600000     -69.72390000
H      -48.99270000     -33.17760000     -68.44830000
C      -46.60040000     -30.83340000     -69.63980000
C      -44.75520000     -31.99200000     -70.45880000
C      -44.44010000     -30.71770000     -70.87640000
S      -48.13200000     -30.86190000     -68.86020000
S      -45.68800000     -29.58990000     -70.43380000
H      -43.51870000     -30.42140000     -71.37660000
