40
Properties=species:S:1:pos:R:3 #=T CELL(abcABC):=T 1.889726e+02=T 90.00000=T Traj:=T positionsangstrom=T Step:=T 0=T Bead:=T pbc="F F F"
C      -44.16260000     -33.17080000     -74.21410000
C      -43.46870000     -34.24930000     -73.71140000
C      -44.18890000     -35.38450000     -73.30670000
C      -45.54570000     -35.42720000     -73.39950000
C      -46.27800000     -34.34460000     -73.96920000
C      -45.55260000     -33.22960000     -74.39030000
H      -43.65830000     -32.29150000     -74.60330000
H      -43.58230000     -36.13470000     -72.71880000
H      -47.36430000     -34.36340000     -74.07590000
H      -46.26280000     -32.39500000     -74.66030000
C      -46.27360000     -36.65050000     -72.94160000
H      -45.66450000     -37.50290000     -73.23870000
H      -47.24150000     -36.73350000     -73.47960000
C      -41.94390000     -34.19420000     -73.56770000
H      -41.45900000     -35.01070000     -74.10590000
H      -41.45550000     -33.32490000     -73.96710000
S      -46.34250000     -36.76530000     -71.17840000
S      -41.43910000     -34.33630000     -71.79740000
C      -47.25970000     -35.23210000     -70.71650000
H      -47.08180000     -34.51950000     -71.55430000
H      -48.32700000     -35.43110000     -70.59990000
C      -42.45270000     -32.96290000     -71.08360000
H      -42.47810000     -32.29410000     -71.89360000
H      -41.88070000     -32.53220000     -70.32190000
C      -43.85900000     -33.27380000     -70.58780000
H      -44.25020000     -34.14030000     -71.08990000
H      -43.84950000     -33.56770000     -69.56690000
C      -46.66470000     -34.63900000     -69.44140000
H      -45.60850000     -34.83150000     -69.37640000
H      -47.13110000     -35.31940000     -68.73450000
C      -46.94140000     -33.23960000     -69.23290000
C      -48.04910000     -32.65410000     -68.63350000
C      -46.17200000     -32.18530000     -69.93660000
H      -48.81250000     -33.27240000     -68.13240000
C      -46.72210000     -30.94640000     -69.80560000
C      -44.82280000     -32.10840000     -70.57340000
C      -44.47250000     -30.85790000     -70.95330000
S      -48.17520000     -30.90620000     -68.75610000
S      -45.71800000     -29.64790000     -70.49030000
H      -43.55200000     -30.48860000     -71.45840000
