40
Properties=species:S:1:pos:R:3 #=T CELL(abcABC):=T 1.889726e+02=T 90.00000=T Traj:=T positionsangstrom=T Step:=T 0=T Bead:=T pbc="F F F"
C      -48.69940000     -32.33620000     -71.76080000
C      -47.81500000     -31.95690000     -72.77650000
C      -47.25450000     -33.02760000     -73.58340000
C      -47.74770000     -34.32990000     -73.56840000
C      -48.80520000     -34.62590000     -72.56440000
C      -49.12470000     -33.66490000     -71.65890000
H      -49.04650000     -31.56950000     -71.11490000
H      -46.50280000     -32.80290000     -74.34440000
H      -49.19840000     -35.61560000     -72.45730000
H      -49.86430000     -33.87170000     -70.87500000
C      -47.30230000     -35.33200000     -74.59580000
H      -46.96500000     -34.82900000     -75.52110000
H      -48.06050000     -36.10440000     -74.87780000
C      -47.57810000     -30.52600000     -72.86600000
H      -46.92840000     -30.26580000     -73.72080000
H      -48.53410000     -30.07220000     -73.06300000
S      -45.92150000     -36.38840000     -73.81550000
S      -47.15770000     -29.72380000     -71.27650000
C      -44.90760000     -35.24570000     -72.86140000
H      -43.95630000     -35.65850000     -72.84780000
H      -44.86840000     -34.37830000     -73.49700000
C      -45.41860000     -30.18720000     -70.96030000
H      -45.15770000     -29.81060000     -69.97740000
H      -44.76740000     -29.63910000     -71.69970000
C      -45.05870000     -31.74030000     -70.93970000
H      -45.97560000     -32.18020000     -70.57930000
H      -44.86550000     -32.17520000     -71.90770000
C      -45.34700000     -35.06130000     -71.41960000
H      -45.87120000     -35.93890000     -71.09550000
H      -45.90090000     -34.14390000     -71.38470000
C      -44.14900000     -34.84610000     -70.48330000
C      -43.42620000     -35.93010000     -70.18740000
C      -43.55810000     -33.62160000     -69.94710000
H      -43.66110000     -36.97380000     -70.53990000
C      -42.44930000     -33.84670000     -69.12520000
C      -43.91000000     -32.16510000     -70.10800000
C      -42.98160000     -31.38580000     -69.42770000
S      -42.05420000     -35.54030000     -69.06460000
S      -41.79310000     -32.40610000     -68.51600000
H      -43.05790000     -30.31860000     -69.17820000
