40
Properties=species:S:1:pos:R:3 #=T CELL(abcABC):=T 1.889726e+02=T 90.00000=T Traj:=T positionsangstrom=T Step:=T 0=T Bead:=T pbc="F F F"
C      -48.90310000     -32.53450000     -71.54480000
C      -47.93600000     -32.12130000     -72.48580000
C      -47.49750000     -32.98050000     -73.53450000
C      -47.92950000     -34.33530000     -73.54010000
C      -48.94980000     -34.69970000     -72.66420000
C      -49.44920000     -33.80400000     -71.71850000
H      -49.23910000     -31.84630000     -70.74290000
H      -46.82910000     -32.52310000     -74.23710000
H      -49.38030000     -35.73570000     -72.63730000
H      -50.21010000     -33.97750000     -70.95440000
C      -47.38760000     -35.25770000     -74.50840000
H      -46.93420000     -34.71680000     -75.35980000
H      -48.13790000     -35.88510000     -75.01600000
C      -47.57470000     -30.64560000     -72.66290000
H      -46.73200000     -30.48480000     -73.31730000
H      -48.50020000     -30.15370000     -73.10290000
S      -46.14130000     -36.46820000     -73.81730000
S      -47.14600000     -29.80800000     -71.19060000
C      -44.92440000     -35.43690000     -72.91940000
H      -43.99320000     -36.00260000     -72.88830000
H      -44.69780000     -34.51840000     -73.44460000
C      -45.43390000     -30.30310000     -70.71670000
H      -45.50760000     -30.07670000     -69.63560000
H      -44.75970000     -29.55690000     -71.16400000
C      -45.08320000     -31.75740000     -70.89420000
H      -45.89140000     -32.29080000     -70.36650000
H      -45.13620000     -32.09070000     -71.89380000
C      -45.24270000     -35.18080000     -71.42370000
H      -45.81780000     -35.96340000     -70.94130000
H      -46.00630000     -34.42310000     -71.35160000
C      -43.88590000     -34.87960000     -70.62760000
C      -43.17830000     -35.91130000     -70.07510000
C      -43.35090000     -33.55220000     -70.20120000
H      -43.39160000     -36.91520000     -70.14480000
C      -42.31410000     -33.66320000     -69.30470000
C      -43.76260000     -32.16380000     -70.32820000
C      -42.88380000     -31.27310000     -69.64840000
S      -41.89070000     -35.31690000     -68.98480000
S      -41.66270000     -32.18150000     -68.75110000
H      -42.90780000     -30.23010000     -69.64350000
