40
Properties=species:S:1:pos:R:3 #=T CELL(abcABC):=T 1.889726e+02=T 90.00000=T Traj:=T positionsangstrom=T Step:=T 0=T Bead:=T pbc="F F F"
C      -48.58650000     -32.32370000     -71.90320000
C      -47.85940000     -31.83710000     -72.98940000
C      -47.33330000     -32.81220000     -73.92080000
C      -47.57710000     -34.16300000     -73.89180000
C      -48.35750000     -34.55090000     -72.74960000
C      -48.86950000     -33.67570000     -71.82230000
H      -49.02010000     -31.69030000     -71.11180000
H      -46.90120000     -32.32250000     -74.80360000
H      -48.44810000     -35.64820000     -72.55420000
H      -49.47680000     -34.04640000     -70.96470000
C      -47.06430000     -35.19230000     -74.77930000
H      -46.76250000     -34.81990000     -75.76660000
H      -47.83950000     -35.93180000     -74.99770000
C      -47.33770000     -30.42510000     -73.09570000
H      -46.39260000     -30.28980000     -73.64870000
H      -48.08870000     -29.86770000     -73.67100000
S      -45.68420000     -36.27230000     -74.06960000
S      -47.05490000     -29.64780000     -71.44260000
C      -44.77500000     -35.24770000     -72.85040000
H      -43.72190000     -35.52470000     -73.05390000
H      -44.82830000     -34.19960000     -73.22450000
C      -45.47050000     -30.44000000     -70.81060000
H      -45.25120000     -29.88700000     -69.85120000
H      -44.67650000     -30.20180000     -71.54150000
C      -45.55120000     -31.92240000     -70.57140000
H      -46.32220000     -32.19810000     -69.83150000
H      -45.69790000     -32.50630000     -71.45030000
C      -45.22780000     -35.39240000     -71.38230000
H      -45.36710000     -36.47880000     -71.21240000
H      -46.12810000     -34.79480000     -71.31110000
C      -44.06440000     -34.98220000     -70.39700000
C      -43.28600000     -36.03880000     -69.95850000
C      -43.79290000     -33.73330000     -69.78940000
H      -43.19120000     -37.04640000     -70.37260000
C      -42.71220000     -33.87080000     -68.94050000
C      -44.24230000     -32.42370000     -69.92400000
C      -43.46330000     -31.53580000     -69.20450000
S      -42.05790000     -35.50360000     -68.76560000
S      -42.16180000     -32.30850000     -68.34440000
H      -43.58930000     -30.48520000     -69.16750000
