40
Properties=species:S:1:pos:R:3 #=T CELL(abcABC):=T 1.889726e+02=T 90.00000=T Traj:=T positionsangstrom=T Step:=T 0=T Bead:=T pbc="F F F"
C      -44.24860000     -34.68590000     -67.56340000
C      -44.71830000     -33.39790000     -67.95250000
C      -46.00970000     -33.28390000     -68.47170000
C      -46.90360000     -34.38370000     -68.37740000
C      -46.47930000     -35.68210000     -67.97420000
C      -45.10890000     -35.76120000     -67.63660000
H      -43.21450000     -34.87990000     -67.21520000
H      -46.43390000     -32.26620000     -68.75300000
H      -47.19790000     -36.50590000     -67.99730000
H      -44.75450000     -36.73040000     -67.45710000
C      -48.30430000     -34.12430000     -68.72430000
H      -48.67320000     -33.10460000     -68.59080000
H      -48.90160000     -34.83050000     -68.12920000
C      -43.89570000     -32.16950000     -67.87340000
H      -44.53010000     -31.26890000     -68.11450000
H      -43.49340000     -32.02230000     -66.89590000
S      -48.81010000     -34.57600000     -70.49670000
S      -42.56900000     -32.09120000     -69.07690000
C      -47.31630000     -34.24300000     -71.55020000
H      -46.44100000     -34.75250000     -71.07970000
H      -47.51250000     -34.69250000     -72.49270000
C      -43.36820000     -32.24960000     -70.72660000
H      -42.77720000     -31.63220000     -71.48550000
H      -44.40470000     -31.77400000     -70.63840000
C      -43.58680000     -33.63210000     -71.22160000
H      -42.75090000     -34.29680000     -71.07330000
H      -44.53440000     -34.02550000     -70.79810000
C      -46.94000000     -32.76080000     -71.75450000
H      -46.40710000     -32.34130000     -70.91740000
H      -47.84050000     -32.20620000     -71.72770000
C      -46.28530000     -32.49560000     -73.06200000
C      -46.95160000     -31.99840000     -74.12540000
C      -44.94470000     -32.95550000     -73.33930000
H      -48.06630000     -31.82890000     -74.05520000
C      -44.79520000     -32.86810000     -74.76590000
C      -43.77060000     -33.58310000     -72.68070000
C      -42.82210000     -33.87700000     -73.60530000
S      -46.07130000     -31.96850000     -75.58990000
S      -43.29840000     -33.58050000     -75.23110000
H      -41.88950000     -34.29670000     -73.28190000
