40
Properties=species:S:1:pos:R:3 #=T CELL(abcABC):=T 1.889726e+02=T 90.00000=T Traj:=T positionsangstrom=T Step:=T 0=T Bead:=T pbc="F F F"
C      -45.65380000     -28.78430000     -70.49760000
C      -44.78590000     -29.82260000     -70.65980000
C      -44.99360000     -30.65920000     -71.80860000
C      -45.86770000     -30.25550000     -72.87370000
C      -46.70540000     -29.12370000     -72.67730000
C      -46.60860000     -28.41690000     -71.49300000
H      -45.77880000     -28.10650000     -69.58250000
H      -44.22870000     -31.39740000     -72.08920000
H      -47.47920000     -28.94560000     -73.40060000
H      -47.46650000     -27.76690000     -71.29150000
C      -45.92450000     -31.06700000     -74.12960000
H      -45.04160000     -31.62810000     -74.35520000
H      -46.22580000     -30.42100000     -74.98900000
C      -43.67360000     -30.15280000     -69.67440000
H      -42.80240000     -30.58800000     -70.32450000
H      -43.32470000     -29.27170000     -69.10130000
S      -47.38170000     -32.32720000     -74.09410000
S      -44.09310000     -31.24890000     -68.26990000
C      -46.85340000     -33.62130000     -72.82650000
H      -47.00060000     -33.28470000     -71.78910000
H      -47.60360000     -34.36700000     -72.98710000
C      -43.77940000     -32.94180000     -68.94840000
H      -43.55310000     -33.52930000     -68.08020000
H      -42.86200000     -32.95960000     -69.51160000
C      -45.00930000     -33.47610000     -69.73680000
H      -45.77220000     -33.20790000     -69.05400000
H      -44.94600000     -32.99580000     -70.77980000
C      -45.43270000     -34.02420000     -73.19870000
H      -44.59850000     -33.24990000     -73.07680000
H      -45.48760000     -34.21860000     -74.29910000
C      -45.03740000     -35.36800000     -72.60140000
C      -44.99450000     -36.48170000     -73.38890000
C      -44.97420000     -35.68810000     -71.20800000
H      -44.75730000     -36.48010000     -74.49610000
C      -44.90340000     -37.03780000     -71.01030000
C      -45.02570000     -35.00390000     -69.92600000
C      -45.03260000     -35.90420000     -68.85370000
S      -44.92790000     -37.95310000     -72.52480000
S      -44.97830000     -37.60190000     -69.39330000
H      -45.00570000     -35.55600000     -67.85230000
