40
Properties=species:S:1:pos:R:3 #=T CELL(abcABC):=T 1.889726e+02=T 90.00000=T Traj:=T positionsangstrom=T Step:=T 0=T Bead:=T pbc="F F F"
C      -46.04530000     -30.40150000     -69.00610000
C      -45.18270000     -31.47480000     -68.85210000
C      -43.98660000     -31.54840000     -69.54500000
C      -43.62160000     -30.57440000     -70.47470000
C      -44.50840000     -29.45170000     -70.63830000
C      -45.72600000     -29.48010000     -70.01710000
H      -46.88020000     -30.40600000     -68.45580000
H      -43.31100000     -32.38620000     -69.47670000
H      -44.33500000     -28.77620000     -71.52130000
H      -46.44620000     -28.63760000     -70.23530000
C      -42.46250000     -30.68320000     -71.44850000
H      -41.58960000     -31.14220000     -70.91030000
H      -42.27000000     -29.66440000     -71.81070000
C      -45.39690000     -32.38600000     -67.70410000
H      -44.71790000     -33.25040000     -67.80700000
H      -45.26660000     -31.89630000     -66.74320000
S      -42.79720000     -31.75210000     -72.93080000
S      -47.12920000     -33.11500000     -67.59530000
C      -44.57390000     -31.37850000     -73.34390000
H      -44.73340000     -30.43140000     -72.83930000
H      -44.87220000     -31.14670000     -74.35330000
C      -46.99230000     -34.58690000     -68.74090000
H      -48.04780000     -34.82600000     -68.74860000
H      -46.43900000     -35.38770000     -68.20990000
C      -46.41490000     -34.15620000     -70.08490000
H      -46.84450000     -33.34640000     -70.53970000
H      -45.43170000     -33.83780000     -69.90390000
C      -45.42320000     -32.45060000     -72.63070000
H      -46.44750000     -32.08130000     -72.62370000
H      -45.17240000     -32.52150000     -71.61840000
C      -45.41530000     -33.87650000     -73.17730000
C      -44.93630000     -34.14480000     -74.41090000
C      -45.89010000     -35.03500000     -72.47970000
H      -44.61630000     -33.51930000     -75.13400000
C      -45.74620000     -36.19650000     -73.18770000
C      -46.32110000     -35.28720000     -71.10370000
C      -46.55460000     -36.59960000     -70.92590000
S      -45.14510000     -35.85760000     -74.75950000
S      -46.32220000     -37.62420000     -72.40200000
H      -46.80310000     -37.16410000     -70.03080000
