40
Properties=species:S:1:pos:R:3 #=T CELL(abcABC):=T 1.889726e+02=T 90.00000=T Traj:=T positionsangstrom=T Step:=T 0=T Bead:=T pbc="F F F"
C      -48.71260000     -32.30060000     -72.69410000
C      -47.55990000     -31.70340000     -73.22010000
C      -46.78110000     -32.52690000     -74.04700000
C      -47.07190000     -33.89790000     -74.26090000
C      -48.27050000     -34.41660000     -73.77180000
C      -49.10920000     -33.62020000     -72.99980000
H      -49.37540000     -31.73090000     -72.07680000
H      -45.89090000     -32.16890000     -74.57310000
H      -48.47020000     -35.52740000     -73.81640000
H      -49.97220000     -34.08640000     -72.51960000
C      -46.03660000     -34.73540000     -74.92710000
H      -45.19160000     -34.11490000     -74.95970000
H      -46.30900000     -35.09380000     -75.97340000
C      -47.22830000     -30.28510000     -72.79630000
H      -46.18780000     -29.96630000     -73.06550000
H      -47.90300000     -29.67310000     -73.43310000
S      -45.50400000     -36.27620000     -74.11130000
S      -47.42490000     -29.92970000     -71.02340000
C      -44.38910000     -35.55370000     -72.79340000
H      -43.60680000     -36.29880000     -72.58640000
H      -43.87570000     -34.64230000     -73.18550000
C      -45.71460000     -30.36830000     -70.39140000
H      -45.65100000     -30.02690000     -69.41730000
H      -44.93410000     -29.90770000     -71.08110000
C      -45.55950000     -31.87770000     -70.43920000
H      -46.42390000     -32.38010000     -69.96950000
H      -45.62510000     -32.24510000     -71.45220000
C      -45.18380000     -35.26180000     -71.49020000
H      -45.98470000     -36.02010000     -71.35810000
H      -45.70420000     -34.30160000     -71.58080000
C      -44.20990000     -35.09560000     -70.35580000
C      -43.37780000     -36.11550000     -69.97840000
C      -43.87360000     -33.79150000     -69.71970000
H      -43.70580000     -37.15780000     -70.24570000
C      -42.87470000     -33.90010000     -68.79090000
C      -44.30720000     -32.35300000     -69.77950000
C      -43.59500000     -31.59890000     -68.88270000
S      -42.36320000     -35.58710000     -68.61090000
S      -42.41120000     -32.44220000     -67.94890000
H      -43.65200000     -30.47580000     -68.66340000
