40
Properties=species:S:1:pos:R:3 #=T CELL(abcABC):=T 1.889726e+02=T 90.00000=T Traj:=T positionsangstrom=T Step:=T 0=T Bead:=T pbc="F F F"
C      -48.70500000     -31.78680000     -73.54100000
C      -47.33430000     -31.33650000     -73.35790000
C      -46.32220000     -32.14870000     -73.83060000
C      -46.58780000     -33.45060000     -74.25990000
C      -47.94540000     -33.79960000     -74.49450000
C      -48.98480000     -32.91150000     -74.17760000
H      -49.52460000     -31.05600000     -73.25010000
H      -45.20170000     -31.87900000     -73.71940000
H      -48.20650000     -34.72710000     -75.06400000
H      -50.00570000     -33.16430000     -74.67150000
C      -45.59600000     -34.50140000     -74.51250000
H      -44.63270000     -34.34670000     -74.05330000
H      -45.48390000     -34.57980000     -75.59030000
C      -47.06870000     -30.01250000     -72.74650000
H      -46.09130000     -29.59240000     -73.12510000
H      -47.77570000     -29.26030000     -73.13560000
S      -46.12970000     -36.15580000     -73.93830000
S      -47.40980000     -30.10160000     -70.93910000
C      -45.04610000     -36.25450000     -72.39290000
H      -44.83580000     -37.32380000     -72.16030000
H      -44.03570000     -35.85730000     -72.78130000
C      -45.79400000     -30.61550000     -70.25860000
H      -45.80260000     -30.29010000     -69.24310000
H      -44.98970000     -30.01820000     -70.73720000
C      -45.67440000     -32.13150000     -70.19930000
H      -46.49760000     -32.50410000     -69.62900000
H      -45.80210000     -32.52520000     -71.21220000
C      -45.53230000     -35.43750000     -71.17690000
H      -46.47350000     -35.92280000     -70.79270000
H      -45.87440000     -34.49900000     -71.49380000
C      -44.40680000     -35.23610000     -70.12380000
C      -43.61540000     -36.23150000     -69.64240000
C      -43.89660000     -33.92590000     -69.63840000
H      -43.69300000     -37.33050000     -69.90340000
C      -42.72550000     -34.09400000     -68.90180000
C      -44.31450000     -32.57560000     -69.59250000
C      -43.51550000     -31.79550000     -68.83720000
S      -42.32730000     -35.75800000     -68.54600000
S      -42.13310000     -32.65840000     -68.16380000
H      -43.51240000     -30.77940000     -68.68970000
