40
Properties=species:S:1:pos:R:3 #=T CELL(abcABC):=T 1.889726e+02=T 90.00000=T Traj:=T positionsangstrom=T Step:=T 0=T Bead:=T pbc="F F F"
C      -48.70950000     -31.55870000     -73.90950000
C      -47.41720000     -31.34200000     -73.41270000
C      -46.41930000     -32.22530000     -73.70570000
C      -46.71520000     -33.47770000     -74.30420000
C      -48.04210000     -33.71780000     -74.76850000
C      -49.02210000     -32.75630000     -74.51890000
H      -49.51130000     -30.82890000     -73.70240000
H      -45.34750000     -31.97630000     -73.52590000
H      -48.31230000     -34.66990000     -75.32360000
H      -50.09550000     -33.09090000     -74.69190000
C      -45.62980000     -34.49900000     -74.53640000
H      -44.60260000     -34.17570000     -74.25120000
H      -45.43590000     -34.79760000     -75.58140000
C      -47.05750000     -29.99910000     -72.76120000
H      -45.95690000     -29.89420000     -72.90150000
H      -47.58250000     -29.18980000     -73.18770000
S      -46.22280000     -36.03760000     -73.67870000
S      -47.36070000     -30.00230000     -70.95550000
C      -45.14660000     -36.29770000     -72.18290000
H      -45.40320000     -37.32700000     -71.88850000
H      -44.07600000     -36.18940000     -72.42980000
C      -45.73380000     -30.56210000     -70.26570000
H      -45.75300000     -30.07830000     -69.23650000
H      -44.91530000     -30.15310000     -70.86340000
C      -45.55320000     -32.10750000     -70.25560000
H      -46.47850000     -32.59720000     -69.84470000
H      -45.47280000     -32.45480000     -71.29180000
C      -45.51370000     -35.36210000     -71.05330000
H      -46.40420000     -35.68580000     -70.57880000
H      -45.67230000     -34.39720000     -71.57130000
C      -44.42630000     -35.29510000     -69.99490000
C      -43.58440000     -36.33120000     -69.78230000
C      -43.93040000     -34.02440000     -69.44550000
H      -43.72270000     -37.31220000     -70.26050000
C      -42.70380000     -34.21380000     -68.73490000
C      -44.33060000     -32.63170000     -69.50160000
C      -43.52280000     -31.80830000     -68.83900000
S      -42.17550000     -35.92070000     -68.78700000
S      -42.10050000     -32.72840000     -68.04080000
H      -43.47930000     -30.77170000     -68.66250000
