40
Properties=species:S:1:pos:R:3 #=T CELL(abcABC):=T 1.889726e+02=T 90.00000=T Traj:=T positionsangstrom=T Step:=T 0=T Bead:=T pbc="F F F"
C      -48.67670000     -32.23370000     -72.82640000
C      -47.45280000     -31.66280000     -73.21510000
C      -46.54120000     -32.44920000     -74.01180000
C      -46.83210000     -33.75860000     -74.25940000
C      -48.09400000     -34.29370000     -73.84000000
C      -48.97480000     -33.54000000     -73.10370000
H      -49.30490000     -31.67610000     -72.22150000
H      -45.49820000     -32.02690000     -74.23260000
H      -48.37060000     -35.26360000     -74.29000000
H      -49.92790000     -34.01370000     -72.88770000
C      -45.91790000     -34.63850000     -75.05070000
H      -44.96050000     -34.11810000     -75.29450000
H      -46.45400000     -34.87430000     -76.01320000
C      -47.09740000     -30.20570000     -72.82790000
H      -46.08310000     -29.92190000     -73.12370000
H      -47.76300000     -29.48880000     -73.25530000
S      -45.77380000     -36.21540000     -74.09300000
S      -47.47170000     -29.98760000     -71.01570000
C      -44.62380000     -35.66440000     -72.67550000
H      -44.03960000     -36.51950000     -72.45040000
H      -43.99060000     -34.90780000     -73.14740000
C      -45.98490000     -30.56370000     -70.15940000
H      -46.28610000     -30.60510000     -69.08470000
H      -45.20350000     -29.80750000     -70.18240000
C      -45.42540000     -31.93290000     -70.55260000
H      -46.23210000     -32.70030000     -70.52430000
H      -45.15670000     -31.81850000     -71.68670000
C      -45.37520000     -35.27120000     -71.37030000
H      -46.16130000     -36.06070000     -71.30880000
H      -45.91130000     -34.29670000     -71.45940000
C      -44.38530000     -35.10100000     -70.20710000
C      -43.50680000     -36.12370000     -69.78570000
C      -43.92920000     -33.85260000     -69.54560000
H      -43.45370000     -37.17750000     -70.18460000
C      -42.83480000     -33.98680000     -68.69880000
C      -44.31560000     -32.43900000     -69.72300000
C      -43.54210000     -31.62650000     -68.97310000
S      -42.30670000     -35.64010000     -68.68520000
S      -42.27790000     -32.41480000     -68.08290000
H      -43.74620000     -30.51210000     -68.91180000
