40
Properties=species:S:1:pos:R:3 #=T CELL(abcABC):=T 1.889726e+02=T 90.00000=T Traj:=T positionsangstrom=T Step:=T 0=T Bead:=T pbc="F F F"
C      -48.24520000     -31.14600000     -73.60470000
C      -46.84420000     -31.31170000     -73.41220000
C      -46.23120000     -32.53550000     -73.82090000
C      -47.02400000     -33.58430000     -74.35010000
C      -48.38120000     -33.35270000     -74.56650000
C      -49.03370000     -32.13850000     -74.22810000
H      -48.63250000     -30.15340000     -73.26640000
H      -45.13220000     -32.64600000     -73.83150000
H      -48.92330000     -34.20710000     -74.89250000
H      -50.07000000     -31.93960000     -74.41360000
C      -46.44300000     -34.88730000     -74.75610000
H      -45.39210000     -34.90570000     -74.67940000
H      -46.87350000     -35.16510000     -75.74600000
C      -45.99400000     -30.20080000     -72.91530000
H      -44.94910000     -30.58040000     -72.91660000
H      -46.09210000     -29.29040000     -73.46320000
S      -46.95870000     -36.14860000     -73.46890000
S      -46.39780000     -29.64120000     -71.22470000
C      -45.48830000     -36.27930000     -72.31500000
H      -45.61300000     -37.15050000     -71.68930000
H      -44.59490000     -36.53180000     -72.89790000
C      -45.29430000     -30.52190000     -70.07820000
H      -45.49200000     -30.00710000     -69.11140000
H      -44.31270000     -30.31730000     -70.38600000
C      -45.63440000     -32.03850000     -69.99630000
H      -46.66970000     -32.07280000     -69.58950000
H      -45.65340000     -32.55710000     -70.94290000
C      -45.43590000     -35.04100000     -71.45920000
H      -46.26410000     -34.99110000     -70.71180000
H      -45.52260000     -34.08830000     -72.12190000
C      -44.19000000     -35.00810000     -70.62270000
C      -43.19530000     -35.98730000     -70.60540000
C      -43.95540000     -34.00390000     -69.54120000
H      -43.20150000     -36.68490000     -71.45410000
C      -42.85260000     -34.46540000     -68.74820000
C      -44.66310000     -32.79290000     -69.09940000
C      -44.06960000     -32.33960000     -67.97590000
S      -42.03960000     -35.85250000     -69.27790000
S      -42.66660000     -33.29340000     -67.44620000
H      -44.12320000     -31.31110000     -67.62900000
