40
Properties=species:S:1:pos:R:3 #=T CELL(abcABC):=T 1.889726e+02=T 90.00000=T Traj:=T positionsangstrom=T Step:=T 0=T Bead:=T pbc="F F F"
C      -48.59810000     -31.20060000     -74.26740000
C      -47.39020000     -31.25820000     -73.51300000
C      -46.57360000     -32.38420000     -73.69730000
C      -46.98850000     -33.46870000     -74.45450000
C      -48.21210000     -33.35860000     -75.18210000
C      -49.02580000     -32.22350000     -75.08050000
H      -49.13740000     -30.25760000     -74.26100000
H      -45.66410000     -32.45430000     -73.18970000
H      -48.29870000     -34.16400000     -75.80970000
H      -50.00430000     -32.09530000     -75.41770000
C      -46.18990000     -34.75660000     -74.58130000
H      -45.13110000     -34.51190000     -74.43750000
H      -46.34330000     -35.14990000     -75.60000000
C      -47.04490000     -30.09240000     -72.68270000
H      -45.90540000     -30.03990000     -72.82470000
H      -47.46160000     -29.16110000     -73.00760000
S      -46.72010000     -36.09650000     -73.43740000
S      -47.27060000     -30.12890000     -70.83440000
C      -45.32270000     -36.35720000     -72.28570000
H      -45.73750000     -37.15020000     -71.73350000
H      -44.54560000     -36.60650000     -72.97770000
C      -45.60750000     -30.63750000     -70.14910000
H      -45.46750000     -30.18820000     -69.17430000
H      -44.91330000     -30.23720000     -70.88070000
C      -45.44090000     -32.16140000     -70.01680000
H      -46.23740000     -32.47570000     -69.33910000
H      -45.67120000     -32.53560000     -71.01610000
C      -45.06350000     -35.16420000     -71.38190000
H      -46.05880000     -34.82380000     -71.03940000
H      -44.66750000     -34.34340000     -71.97420000
C      -44.10340000     -35.20470000     -70.22300000
C      -43.33440000     -36.30120000     -69.97130000
C      -43.78480000     -34.05050000     -69.39730000
H      -43.23540000     -37.23660000     -70.48450000
C      -42.71650000     -34.26780000     -68.58320000
C      -44.12980000     -32.63270000     -69.38970000
C      -43.29260000     -31.93320000     -68.60800000
S      -42.11620000     -35.94820000     -68.72320000
S      -42.00340000     -32.83930000     -67.84760000
H      -43.37920000     -30.86840000     -68.55400000
