40
Properties=species:S:1:pos:R:3 #=T CELL(abcABC):=T 1.889726e+02=T 90.00000=T Traj:=T positionsangstrom=T Step:=T 0=T Bead:=T pbc="F F F"
C      -48.14040000     -30.97610000     -73.93510000
C      -46.86050000     -31.31910000     -73.58680000
C      -46.29020000     -32.55740000     -73.76050000
C      -47.06340000     -33.55950000     -74.30990000
C      -48.38640000     -33.30020000     -74.73530000
C      -48.95640000     -32.03350000     -74.45620000
H      -48.48830000     -29.89940000     -73.81730000
H      -45.24740000     -32.70510000     -73.45030000
H      -48.97620000     -34.11410000     -75.02290000
H      -50.03710000     -31.87270000     -74.70220000
C      -46.60010000     -35.03160000     -74.53300000
H      -45.49670000     -35.08050000     -74.60380000
H      -46.99300000     -35.33490000     -75.54850000
C      -46.05940000     -30.23280000     -72.86900000
H      -45.10300000     -30.69720000     -72.64390000
H      -45.88510000     -29.38190000     -73.50580000
S      -47.16010000     -36.13470000     -73.23350000
S      -46.75590000     -29.79310000     -71.21520000
C      -45.61240000     -36.34160000     -72.18470000
H      -45.91310000     -37.18530000     -71.50040000
H      -44.76610000     -36.83240000     -72.73380000
C      -45.56290000     -30.57020000     -70.02090000
H      -45.72670000     -30.07740000     -69.04440000
H      -44.52060000     -30.35830000     -70.23330000
C      -45.71590000     -32.10190000     -69.79340000
H      -46.63320000     -32.34610000     -69.15150000
H      -45.88480000     -32.48940000     -70.75720000
C      -45.20550000     -35.01570000     -71.61560000
H      -46.11840000     -34.55960000     -71.22560000
H      -44.76750000     -34.30140000     -72.38010000
C      -44.03770000     -35.05220000     -70.57980000
C      -43.15630000     -36.07020000     -70.50330000
C      -43.82950000     -33.99850000     -69.64540000
H      -43.11110000     -36.98030000     -71.18880000
C      -42.71930000     -34.31310000     -68.88870000
C      -44.45720000     -32.75250000     -69.19940000
C      -43.77300000     -32.19510000     -68.10450000
S      -41.97120000     -35.84900000     -69.18700000
S      -42.37080000     -33.20630000     -67.57250000
H      -44.17310000     -31.42010000     -67.43570000
