40
Properties=species:S:1:pos:R:3 #=T CELL(abcABC):=T 1.889726e+02=T 90.00000=T Traj:=T positionsangstrom=T Step:=T 0=T Bead:=T pbc="F F F"
C      -48.53350000     -31.16590000     -74.23970000
C      -47.34590000     -31.34260000     -73.44410000
C      -46.60360000     -32.49910000     -73.59760000
C      -46.96530000     -33.52750000     -74.40160000
C      -48.19980000     -33.33080000     -75.13250000
C      -48.95970000     -32.19650000     -75.08700000
H      -49.04040000     -30.23040000     -74.13120000
H      -45.64090000     -32.57680000     -73.02500000
H      -48.52460000     -34.21840000     -75.65850000
H      -49.81870000     -31.99080000     -75.72110000
C      -46.20940000     -34.80040000     -74.49380000
H      -45.16860000     -34.55130000     -74.28420000
H      -46.27410000     -35.18970000     -75.51110000
C      -46.83680000     -30.18270000     -72.67320000
H      -45.75800000     -30.14940000     -72.80950000
H      -47.28100000     -29.27580000     -73.08340000
S      -46.87990000     -36.07530000     -73.37560000
S      -47.16280000     -30.13440000     -70.89910000
C      -45.42390000     -36.25720000     -72.18260000
H      -45.51570000     -37.13080000     -71.48850000
H      -44.57660000     -36.63480000     -72.78910000
C      -45.59990000     -30.61990000     -70.03090000
H      -45.63850000     -30.27130000     -68.99110000
H      -44.80650000     -30.01690000     -70.49310000
C      -45.36600000     -32.10820000     -70.14400000
H      -46.25830000     -32.63040000     -69.68430000
H      -45.40030000     -32.49330000     -71.09610000
C      -45.19440000     -34.96390000     -71.40180000
H      -46.15440000     -34.70480000     -70.91250000
H      -44.98780000     -34.11920000     -72.11030000
C      -44.08720000     -35.12250000     -70.36680000
C      -43.34270000     -36.26370000     -70.09540000
C      -43.65090000     -34.03690000     -69.54480000
H      -43.36340000     -37.19910000     -70.66720000
C      -42.54060000     -34.23680000     -68.76980000
C      -44.11640000     -32.62750000     -69.41730000
C      -43.36940000     -31.95440000     -68.46950000
S      -42.15640000     -35.95170000     -68.83510000
S      -42.09120000     -32.93050000     -67.75920000
H      -43.57480000     -30.98990000     -68.09640000
