40
Properties=species:S:1:pos:R:3 #=T CELL(abcABC):=T 1.889726e+02=T 90.00000=T Traj:=T positionsangstrom=T Step:=T 0=T Bead:=T pbc="F F F"
C      -46.06990000     -36.70520000     -68.14960000
C      -46.49300000     -36.23480000     -69.39310000
C      -45.62450000     -36.45960000     -70.47570000
C      -44.31920000     -36.98810000     -70.35930000
C      -43.94330000     -37.41950000     -69.05110000
C      -44.81990000     -37.30330000     -67.95670000
H      -46.60420000     -36.37570000     -67.27820000
H      -45.95700000     -36.16670000     -71.51560000
H      -42.89870000     -37.77810000     -68.88920000
H      -44.69750000     -37.83680000     -67.00600000
C      -43.29880000     -37.09680000     -71.47820000
H      -43.36360000     -38.18740000     -71.75280000
H      -42.31160000     -36.78850000     -71.05750000
C      -47.68420000     -35.38770000     -69.53550000
H      -47.90460000     -35.15520000     -70.53260000
H      -48.65400000     -35.88300000     -69.10950000
S      -43.58450000     -36.09570000     -72.94840000
S      -47.43110000     -33.78440000     -68.50340000
C      -43.96360000     -34.27010000     -72.39440000
H      -44.02440000     -34.30330000     -71.30940000
H      -43.14220000     -33.53780000     -72.66490000
C      -46.40870000     -32.85000000     -69.70030000
H      -45.83400000     -33.68240000     -70.13470000
H      -45.78270000     -32.06620000     -69.31930000
C      -47.20370000     -32.20600000     -70.82400000
H      -47.57390000     -32.98800000     -71.46110000
H      -48.17530000     -31.72140000     -70.48000000
C      -45.20740000     -33.71600000     -73.11960000
H      -45.94070000     -33.90650000     -72.38940000
H      -45.36910000     -34.31640000     -74.05060000
C      -44.96210000     -32.20200000     -73.43150000
C      -43.91550000     -31.73920000     -74.16210000
C      -45.56460000     -31.15370000     -72.67830000
H      -43.18260000     -32.23040000     -74.76710000
C      -45.04570000     -29.87290000     -72.95250000
C      -46.52320000     -31.09900000     -71.59540000
C      -46.71900000     -29.79530000     -71.14390000
S      -43.70280000     -29.97880000     -74.10670000
S      -45.56770000     -28.63380000     -71.79420000
H      -47.43710000     -29.52000000     -70.39050000
