40
Properties=species:S:1:pos:R:3 #=T CELL(abcABC):=T 1.889726e+02=T 90.00000=T Traj:=T positionsangstrom=T Step:=T 0=T Bead:=T pbc="F F F"
C      -48.06710000     -31.05920000     -73.38390000
C      -46.67170000     -31.27540000     -73.45240000
C      -46.23390000     -32.48720000     -73.95400000
C      -47.11340000     -33.45110000     -74.44900000
C      -48.46500000     -33.24640000     -74.22860000
C      -48.95070000     -32.09500000     -73.65480000
H      -48.38120000     -30.06160000     -73.20840000
H      -45.17500000     -32.56580000     -74.07220000
H      -49.14340000     -34.05290000     -74.58370000
H      -49.98780000     -31.88300000     -73.71890000
C      -46.63690000     -34.74320000     -75.08750000
H      -45.57830000     -34.60940000     -75.40980000
H      -47.28580000     -35.01690000     -75.96870000
C      -45.73090000     -30.14140000     -72.91590000
H      -44.69280000     -30.52380000     -72.81640000
H      -45.72010000     -29.38100000     -73.71240000
S      -46.70050000     -36.14700000     -73.82630000
S      -46.09700000     -29.55560000     -71.22310000
C      -45.19340000     -35.97130000     -72.80550000
H      -44.96300000     -37.00230000     -72.44830000
H      -44.26130000     -35.84850000     -73.31680000
C      -45.17980000     -30.81980000     -70.20290000
H      -44.93150000     -30.22910000     -69.28610000
H      -44.23580000     -31.13880000     -70.63780000
C      -45.93520000     -32.13470000     -69.76760000
H      -46.84140000     -31.95600000     -69.15110000
H      -46.26300000     -32.65360000     -70.69960000
C      -45.28620000     -34.93340000     -71.72970000
H      -46.26780000     -34.97690000     -71.22150000
H      -45.19860000     -33.87430000     -71.98180000
C      -44.23650000     -35.04020000     -70.64470000
C      -43.28800000     -36.08980000     -70.49840000
C      -44.20830000     -34.15160000     -69.49610000
H      -43.03250000     -36.75790000     -71.29850000
C      -43.21240000     -34.57630000     -68.53430000
C      -44.92580000     -32.96050000     -68.98980000
C      -44.20140000     -32.42170000     -67.94770000
S      -42.22230000     -35.93100000     -69.08300000
S      -42.86630000     -33.33460000     -67.37810000
H      -44.48510000     -31.46330000     -67.46630000
