40
Properties=species:S:1:pos:R:3 #=T CELL(abcABC):=T 1.889726e+02=T 90.00000=T Traj:=T positionsangstrom=T Step:=T 0=T Bead:=T pbc="F F F"
C      -47.15810000     -29.85900000     -69.97430000
C      -46.78220000     -30.92750000     -69.13960000
C      -45.40290000     -31.19970000     -68.94250000
C      -44.46340000     -30.49660000     -69.65430000
C      -44.83030000     -29.47820000     -70.46620000
C      -46.18640000     -29.10580000     -70.57930000
H      -48.23260000     -29.71320000     -70.13840000
H      -45.11990000     -32.15160000     -68.50520000
H      -44.06460000     -28.87430000     -70.97290000
H      -46.38220000     -28.22270000     -71.22450000
C      -42.95890000     -30.80930000     -69.56410000
H      -42.33440000     -30.10670000     -69.00330000
H      -42.55360000     -30.82650000     -70.55490000
C      -47.74820000     -31.88950000     -68.49710000
H      -47.05840000     -32.50310000     -67.88110000
H      -48.47900000     -31.37360000     -67.93840000
S      -42.47350000     -32.51530000     -68.95340000
S      -48.67150000     -32.85490000     -69.79290000
C      -42.37440000     -33.33000000     -70.65070000
H      -42.15810000     -32.57040000     -71.34400000
H      -41.56560000     -34.05730000     -70.78850000
C      -47.29640000     -33.49880000     -70.89810000
H      -46.33370000     -32.97470000     -70.77250000
H      -47.55320000     -33.26750000     -71.95960000
C      -47.02130000     -35.02090000     -70.76380000
H      -46.30140000     -35.18660000     -69.96960000
H      -47.86120000     -35.61230000     -70.60380000
C      -43.73740000     -33.98540000     -70.90780000
H      -44.41730000     -33.17870000     -70.87190000
H      -43.91440000     -34.66720000     -70.10130000
C      -43.88550000     -34.63480000     -72.21120000
C      -42.92050000     -34.63280000     -73.18080000
C      -45.10340000     -35.30480000     -72.62570000
H      -41.89320000     -34.26780000     -73.11930000
C      -44.93140000     -35.76370000     -73.95980000
C      -46.40150000     -35.56250000     -72.09370000
C      -47.22820000     -36.24350000     -73.03640000
S      -43.38300000     -35.41150000     -74.69240000
S      -46.39670000     -36.62570000     -74.55630000
H      -48.23030000     -36.61560000     -72.89570000
