40
Properties=species:S:1:pos:R:3 #=T CELL(abcABC):=T 1.889726e+02=T 90.00000=T Traj:=T positionsangstrom=T Step:=T 0=T Bead:=T pbc="F F F"
C      -46.78340000     -30.38710000     -70.60270000
C      -46.46660000     -31.15540000     -69.46430000
C      -45.12210000     -31.17550000     -68.99870000
C      -44.14090000     -30.46740000     -69.73450000
C      -44.49290000     -29.73060000     -70.85540000
C      -45.87090000     -29.64030000     -71.24250000
H      -47.81440000     -30.35950000     -70.99870000
H      -44.94080000     -31.76760000     -68.13530000
H      -43.82840000     -29.06410000     -71.34210000
H      -46.20910000     -29.12830000     -72.13200000
C      -42.74900000     -30.57090000     -69.19530000
H      -42.56870000     -30.13300000     -68.20050000
H      -42.09500000     -30.08890000     -69.80440000
C      -47.52500000     -31.81290000     -68.52830000
H      -47.03290000     -32.21540000     -67.65680000
H      -48.11430000     -31.00000000     -68.19960000
S      -42.25200000     -32.35150000     -69.13370000
S      -48.65470000     -33.04140000     -69.21060000
C      -42.56330000     -32.94520000     -70.80760000
H      -42.78980000     -32.17210000     -71.60260000
H      -41.72050000     -33.48970000     -71.15080000
C      -48.02120000     -33.78150000     -70.75640000
H      -47.52850000     -33.03600000     -71.29880000
H      -48.85280000     -34.17950000     -71.46840000
C      -47.08590000     -34.99500000     -70.61510000
H      -46.17310000     -34.79040000     -70.00250000
H      -47.60570000     -35.80870000     -70.17750000
C      -43.72140000     -33.93120000     -70.80490000
H      -44.65870000     -33.34560000     -70.56370000
H      -43.55720000     -34.75940000     -70.08460000
C      -43.94030000     -34.49250000     -72.25360000
C      -43.00260000     -34.58920000     -73.20900000
C      -45.19280000     -35.20940000     -72.64300000
H      -41.96240000     -34.30070000     -73.13970000
C      -45.12930000     -35.65630000     -73.93360000
C      -46.55270000     -35.41390000     -72.05570000
C      -47.35630000     -36.14470000     -72.89360000
S      -43.57160000     -35.45260000     -74.66830000
S      -46.66820000     -36.43180000     -74.43980000
H      -48.45290000     -36.43150000     -72.68350000
