40
Properties=species:S:1:pos:R:3 #=T CELL(abcABC):=T 1.889726e+02=T 90.00000=T Traj:=T positionsangstrom=T Step:=T 0=T Bead:=T pbc="F F F"
C      -47.05350000     -29.93080000     -70.15320000
C      -46.71690000     -31.03650000     -69.35680000
C      -45.34900000     -31.34330000     -69.10080000
C      -44.35030000     -30.55250000     -69.66920000
C      -44.75020000     -29.52530000     -70.57670000
C      -46.03460000     -29.25710000     -70.89190000
H      -48.08350000     -29.61930000     -70.26610000
H      -45.09750000     -32.04000000     -68.34020000
H      -43.90800000     -28.99340000     -71.05390000
H      -46.29770000     -28.40970000     -71.54720000
C      -42.86560000     -30.68360000     -69.39530000
H      -42.75180000     -30.09250000     -68.45740000
H      -42.27000000     -30.11070000     -70.16470000
C      -47.85240000     -31.73660000     -68.70340000
H      -47.42560000     -32.22020000     -67.78810000
H      -48.64830000     -31.03700000     -68.38310000
S      -42.21160000     -32.34200000     -68.98680000
S      -48.68400000     -33.02830000     -69.73060000
C      -42.29450000     -33.46320000     -70.47940000
H      -42.01110000     -32.87400000     -71.35650000
H      -41.51580000     -34.23710000     -70.25450000
C      -47.46070000     -33.55820000     -70.97800000
H      -46.60380000     -32.83390000     -71.04130000
H      -47.94180000     -33.48400000     -71.88130000
C      -46.94060000     -34.97430000     -70.66210000
H      -46.39110000     -34.92000000     -69.71750000
H      -47.87890000     -35.55780000     -70.40980000
C      -43.60080000     -34.18400000     -70.72040000
H      -44.43040000     -33.46450000     -70.48390000
H      -43.65220000     -35.05400000     -69.92920000
C      -43.86210000     -34.66610000     -72.16680000
C      -42.95580000     -34.66780000     -73.18890000
C      -45.17130000     -35.16870000     -72.63260000
H      -41.97780000     -34.21910000     -73.32270000
C      -45.05740000     -35.66390000     -73.93540000
C      -46.42240000     -35.56690000     -71.98330000
C      -47.31070000     -36.25920000     -72.86470000
S      -43.59400000     -35.35450000     -74.72870000
S      -46.55510000     -36.51040000     -74.48270000
H      -48.29780000     -36.58050000     -72.61360000
