40
Properties=species:S:1:pos:R:3 #=T CELL(abcABC):=T 1.889726e+02=T 90.00000=T Traj:=T positionsangstrom=T Step:=T 0=T Bead:=T pbc="F F F"
C      -48.20640000     -31.43240000     -72.85730000
C      -46.90620000     -31.01360000     -73.23700000
C      -46.08620000     -31.92100000     -73.87970000
C      -46.49430000     -33.22130000     -74.25890000
C      -47.75980000     -33.68550000     -73.84850000
C      -48.60670000     -32.79930000     -73.16100000
H      -48.92770000     -30.62350000     -72.46690000
H      -45.04060000     -31.71950000     -74.16070000
H      -48.10200000     -34.66470000     -73.96670000
H      -49.63500000     -33.11210000     -72.83930000
C      -45.59530000     -34.14230000     -75.04510000
H      -44.58810000     -33.65050000     -74.98910000
H      -45.90570000     -34.24700000     -76.13470000
C      -46.40780000     -29.60520000     -72.94790000
H      -45.91000000     -29.21220000     -73.87770000
H      -47.25450000     -28.77070000     -72.88270000
S      -45.54250000     -35.92140000     -74.51960000
S      -45.33090000     -29.40360000     -71.50030000
C      -44.59850000     -35.90880000     -72.88730000
H      -44.79710000     -36.96030000     -72.57690000
H      -43.53060000     -35.71130000     -73.03070000
C      -44.81850000     -31.11030000     -71.12610000
H      -43.95750000     -30.88730000     -70.43770000
H      -44.49080000     -31.72700000     -71.98200000
C      -45.80970000     -32.00660000     -70.31010000
H      -46.44420000     -31.29040000     -69.68950000
H      -46.46850000     -32.53890000     -70.92080000
C      -45.17060000     -34.96710000     -71.82580000
H      -46.26590000     -35.21080000     -71.64600000
H      -45.07400000     -33.95590000     -72.25720000
C      -44.48300000     -35.18300000     -70.56130000
C      -43.75160000     -36.27790000     -70.21990000
C      -44.58490000     -34.19240000     -69.46320000
H      -43.49310000     -37.05870000     -70.89020000
C      -43.99300000     -34.69750000     -68.29930000
C      -45.13780000     -32.89690000     -69.26120000
C      -44.80730000     -32.36870000     -68.08240000
S      -43.23680000     -36.22650000     -68.56710000
S      -43.94080000     -33.51830000     -67.05330000
H      -45.11080000     -31.43130000     -67.72340000
