40
Properties=species:S:1:pos:R:3 #=T CELL(abcABC):=T 1.889726e+02=T 90.00000=T Traj:=T positionsangstrom=T Step:=T 0=T Bead:=T pbc="F F F"
C      -48.05570000     -31.11420000     -73.24810000
C      -46.67660000     -31.21420000     -73.43820000
C      -46.19430000     -32.41310000     -73.97120000
C      -47.01690000     -33.43230000     -74.47280000
C      -48.38740000     -33.21440000     -74.33560000
C      -48.94060000     -32.14270000     -73.65730000
H      -48.37190000     -30.37260000     -72.50110000
H      -45.15960000     -32.51670000     -74.04730000
H      -49.14770000     -33.94400000     -74.56280000
H      -49.99000000     -32.14310000     -73.41870000
C      -46.53030000     -34.71470000     -75.03190000
H      -45.58950000     -34.72020000     -75.46070000
H      -47.18160000     -34.99180000     -75.89810000
C      -45.70070000     -30.10570000     -73.04070000
H      -44.63620000     -30.29080000     -73.08580000
H      -45.84660000     -29.24780000     -73.78720000
S      -46.61840000     -36.18600000     -73.83750000
S      -46.05120000     -29.54930000     -71.28130000
C      -45.13810000     -35.85060000     -72.83520000
H      -44.91450000     -36.78490000     -72.28320000
H      -44.29830000     -35.51920000     -73.49330000
C      -44.98200000     -30.70890000     -70.32620000
H      -44.66550000     -30.13420000     -69.45530000
H      -44.12140000     -31.01180000     -70.90300000
C      -45.73330000     -31.97180000     -69.88550000
H      -46.58900000     -31.70700000     -69.31680000
H      -45.98950000     -32.47310000     -70.88530000
C      -45.33180000     -34.86620000     -71.68760000
H      -46.16780000     -35.12660000     -71.09810000
H      -45.39030000     -33.85100000     -72.10690000
C      -44.20530000     -34.91280000     -70.70550000
C      -43.45710000     -36.06940000     -70.50830000
C      -44.11060000     -34.07100000     -69.56140000
H      -43.30980000     -36.92470000     -71.18900000
C      -43.12970000     -34.48070000     -68.62520000
C      -44.79170000     -32.85350000     -69.05020000
C      -44.41490000     -32.49150000     -67.78560000
S      -42.37080000     -36.00850000     -69.10840000
S      -43.13270000     -33.60470000     -67.13590000
H      -44.75890000     -31.70330000     -67.13550000
