40
Properties=species:S:1:pos:R:3 #=T CELL(abcABC):=T 1.889726e+02=T 90.00000=T Traj:=T positionsangstrom=T Step:=T 0=T Bead:=T pbc="F F F"
C      -46.78370000     -36.92480000     -72.51630000
C      -46.94260000     -35.66420000     -73.18860000
C      -47.70540000     -34.67680000     -72.63900000
C      -48.24750000     -34.79810000     -71.33260000
C      -48.04850000     -35.99580000     -70.63810000
C      -47.26050000     -36.98460000     -71.21600000
H      -46.15470000     -37.68060000     -72.99550000
H      -47.88660000     -33.77110000     -73.21810000
H      -48.47760000     -36.09210000     -69.60910000
H      -47.06750000     -37.91140000     -70.70280000
C      -49.17540000     -33.73230000     -70.65610000
H      -49.67300000     -34.26300000     -69.83150000
H      -49.90960000     -33.32620000     -71.31920000
C      -46.30030000     -35.49880000     -74.54250000
H      -46.69360000     -36.16380000     -75.33140000
H      -46.47050000     -34.46510000     -74.95760000
S      -48.01070000     -32.46600000     -69.92660000
S      -44.46140000     -35.77540000     -74.48240000
C      -46.93510000     -33.47930000     -68.81780000
H      -46.91090000     -32.91050000     -67.79260000
H      -47.48100000     -34.36330000     -68.62790000
C      -43.79810000     -34.09680000     -73.89040000
H      -44.44840000     -33.28630000     -74.17920000
H      -42.82360000     -34.10530000     -74.35890000
C      -43.86150000     -34.05450000     -72.37590000
H      -44.94340000     -34.20480000     -72.09020000
H      -43.37370000     -34.88420000     -71.95050000
C      -45.53530000     -33.74220000     -69.36620000
H      -45.71350000     -34.34710000     -70.25070000
H      -45.05220000     -34.40230000     -68.54750000
C      -44.70010000     -32.49320000     -69.41460000
C      -44.66120000     -31.51430000     -68.41970000
C      -43.80360000     -32.17820000     -70.51820000
H      -45.20640000     -31.60980000     -67.46000000
C      -43.17310000     -30.93690000     -70.35990000
C      -43.41050000     -32.76080000     -71.81450000
C      -42.40780000     -31.99790000     -72.44150000
S      -43.51650000     -30.22030000     -68.80330000
S      -42.07440000     -30.47540000     -71.59440000
H      -41.90040000     -32.07260000     -73.40260000
