40
Properties=species:S:1:pos:R:3 #=T CELL(abcABC):=T 1.889726e+02=T 90.00000=T Traj:=T positionsangstrom=T Step:=T 0=T Bead:=T pbc="F F F"
C      -48.16790000     -31.81890000     -72.86900000
C      -46.98030000     -31.16720000     -73.29730000
C      -46.09310000     -31.80260000     -74.12940000
C      -46.29050000     -33.15660000     -74.51580000
C      -47.49300000     -33.77400000     -74.11420000
C      -48.41790000     -33.11360000     -73.33380000
H      -48.86500000     -31.38080000     -72.18360000
H      -45.19220000     -31.28770000     -74.44030000
H      -47.71320000     -34.72240000     -74.49290000
H      -49.37260000     -33.63520000     -73.22070000
C      -45.29950000     -33.66370000     -75.48290000
H      -44.60560000     -32.84430000     -75.83350000
H      -45.84120000     -34.14710000     -76.31340000
C      -46.63690000     -29.80710000     -72.84350000
H      -45.60220000     -29.47460000     -73.18700000
H      -47.38360000     -29.17930000     -73.23300000
S      -44.22710000     -35.08020000     -74.71070000
S      -46.79770000     -29.64860000     -71.04750000
C      -44.04460000     -34.53720000     -72.96530000
H      -43.10730000     -34.80660000     -72.65180000
H      -44.12350000     -33.38660000     -73.03770000
C      -45.50540000     -30.60270000     -70.15540000
H      -45.68060000     -30.38040000     -69.12030000
H      -44.52220000     -30.27210000     -70.53180000
C      -45.74030000     -32.15420000     -70.23430000
H      -46.83590000     -32.26920000     -70.13120000
H      -45.40020000     -32.57610000     -71.29200000
C      -45.09350000     -35.07090000     -71.98190000
H      -45.49560000     -36.05150000     -72.32590000
H      -45.93900000     -34.38780000     -71.90750000
C      -44.59260000     -35.29460000     -70.59240000
C      -44.28680000     -36.55310000     -70.18890000
C      -44.49790000     -34.34180000     -69.50760000
H      -44.00460000     -37.36690000     -70.87910000
C      -43.86230000     -34.93590000     -68.39130000
C      -44.95500000     -32.99760000     -69.22330000
C      -44.71320000     -32.64340000     -67.90120000
S      -43.55110000     -36.59690000     -68.64870000
S      -43.69540000     -33.83580000     -67.07120000
H      -44.82250000     -31.62100000     -67.42320000
