40
Properties=species:S:1:pos:R:3 #=T CELL(abcABC):=T 1.889726e+02=T 90.00000=T Traj:=T positionsangstrom=T Step:=T 0=T Bead:=T pbc="F F F"
C      -48.25890000     -31.52820000     -72.85930000
C      -47.03310000     -30.97260000     -73.37080000
C      -46.14440000     -31.77770000     -74.09190000
C      -46.40620000     -33.13620000     -74.34150000
C      -47.60930000     -33.64980000     -73.83610000
C      -48.47080000     -32.88080000     -73.10780000
H      -49.01170000     -30.92930000     -72.35530000
H      -45.21190000     -31.30680000     -74.41490000
H      -47.85780000     -34.63570000     -74.18980000
H      -49.43900000     -33.32150000     -72.84960000
C      -45.44330000     -33.92990000     -75.19270000
H      -44.55440000     -33.37760000     -75.34260000
H      -45.89370000     -34.00510000     -76.24650000
C      -46.57460000     -29.62990000     -72.94440000
H      -45.86110000     -29.12110000     -73.73740000
H      -47.41790000     -28.98030000     -72.86860000
S      -45.13450000     -35.56600000     -74.55810000
S      -45.57180000     -29.52390000     -71.42180000
C      -44.32240000     -35.21030000     -72.97940000
H      -43.63650000     -35.99470000     -72.67890000
H      -43.87250000     -34.22920000     -73.06810000
C      -44.74500000     -31.11630000     -71.05720000
H      -43.84810000     -30.93960000     -70.48280000
H      -44.55890000     -31.65740000     -72.00700000
C      -45.80110000     -31.99210000     -70.27380000
H      -46.35600000     -31.31610000     -69.67920000
H      -46.50590000     -32.69460000     -70.82280000
C      -45.39400000     -35.12650000     -71.84950000
H      -46.19840000     -35.80750000     -72.07050000
H      -45.74370000     -34.04290000     -71.78980000
C      -44.65910000     -35.25340000     -70.52060000
C      -43.97080000     -36.38580000     -70.16500000
C      -44.67440000     -34.29910000     -69.46020000
H      -43.94630000     -37.31160000     -70.73950000
C      -44.06170000     -34.81380000     -68.30020000
C      -45.08530000     -32.91730000     -69.27770000
C      -44.77510000     -32.48920000     -68.02440000
S      -43.35110000     -36.40850000     -68.55930000
S      -43.91780000     -33.74300000     -66.94540000
H      -44.97290000     -31.46320000     -67.54880000
