40
Properties=species:S:1:pos:R:3 #=T CELL(abcABC):=T 1.889726e+02=T 90.00000=T Traj:=T positionsangstrom=T Step:=T 0=T Bead:=T pbc="F F F"
C      -48.22010000     -31.68230000     -72.81280000
C      -47.01500000     -31.16530000     -73.24840000
C      -46.11660000     -31.95190000     -74.06910000
C      -46.53380000     -33.12610000     -74.59490000
C      -47.77810000     -33.66360000     -74.15370000
C      -48.62470000     -32.92810000     -73.27780000
H      -48.98660000     -31.08280000     -72.22540000
H      -45.16140000     -31.52840000     -74.45120000
H      -48.12770000     -34.55460000     -74.65920000
H      -49.64070000     -33.24410000     -73.00900000
C      -45.64520000     -33.93500000     -75.53200000
H      -44.93680000     -33.20390000     -76.01260000
H      -46.17660000     -34.50540000     -76.28220000
C      -46.64450000     -29.70510000     -72.78330000
H      -45.89780000     -29.29650000     -73.53930000
H      -47.61470000     -29.10520000     -72.75390000
S      -44.65820000     -35.22740000     -74.69820000
S      -45.98280000     -29.46780000     -71.07790000
C      -44.23100000     -34.71640000     -72.95130000
H      -43.19900000     -35.10120000     -72.80070000
H      -44.22160000     -33.65630000     -72.78190000
C      -44.88780000     -30.96360000     -70.85890000
H      -44.17630000     -30.71260000     -70.04760000
H      -44.45210000     -31.15290000     -71.80680000
C      -45.73490000     -32.20510000     -70.44940000
H      -46.74270000     -31.74570000     -70.11870000
H      -45.95660000     -32.70400000     -71.33440000
C      -45.25730000     -35.35460000     -71.86530000
H      -45.54970000     -36.37100000     -72.23040000
H      -46.13530000     -34.73390000     -71.87440000
C      -44.53490000     -35.45840000     -70.50220000
C      -44.01440000     -36.64500000     -69.99140000
C      -44.53910000     -34.40650000     -69.52750000
H      -43.81180000     -37.57660000     -70.44970000
C      -43.90270000     -34.78650000     -68.34350000
C      -45.13930000     -33.07000000     -69.36460000
C      -44.75000000     -32.53320000     -68.14940000
S      -43.36550000     -36.46170000     -68.31990000
S      -43.88860000     -33.61670000     -67.04130000
H      -44.97460000     -31.58990000     -67.75310000
