40
Properties=species:S:1:pos:R:3 #=T CELL(abcABC):=T 1.889726e+02=T 90.00000=T Traj:=T positionsangstrom=T Step:=T 0=T Bead:=T pbc="F F F"
C      -47.53760000     -35.02790000     -69.58920000
C      -47.11260000     -36.02730000     -70.43270000
C      -45.86960000     -36.67760000     -70.21870000
C      -45.00190000     -36.16690000     -69.23900000
C      -45.49050000     -35.14110000     -68.35440000
C      -46.76470000     -34.69590000     -68.43390000
H      -48.56910000     -34.69020000     -69.59420000
H      -45.54870000     -37.41290000     -70.90090000
H      -44.89950000     -34.80030000     -67.49070000
H      -47.18510000     -33.91790000     -67.75890000
C      -43.52480000     -36.52380000     -69.03970000
H      -43.33970000     -37.58600000     -68.97330000
H      -43.23510000     -36.01510000     -68.07760000
C      -48.04610000     -36.43930000     -71.55960000
H      -47.81180000     -37.41700000     -71.89790000
H      -49.11540000     -36.49030000     -71.21210000
S      -42.41980000     -35.92070000     -70.37270000
S      -47.86880000     -35.47950000     -73.14890000
C      -42.66860000     -34.09210000     -70.40570000
H      -42.87310000     -33.72240000     -69.39380000
H      -41.67860000     -33.68950000     -70.80530000
C      -47.48110000     -33.76770000     -72.60330000
H      -46.98690000     -33.86500000     -71.61610000
H      -48.43150000     -33.21450000     -72.44260000
C      -46.52170000     -33.10370000     -73.54650000
H      -45.65110000     -33.78890000     -73.71900000
H      -46.95540000     -32.88950000     -74.50440000
C      -43.73270000     -33.66590000     -71.45410000
H      -44.68730000     -34.11400000     -71.16650000
H      -43.46190000     -34.08570000     -72.48190000
C      -43.86930000     -32.15450000     -71.46530000
C      -43.04270000     -31.26410000     -70.78800000
C      -44.97560000     -31.45470000     -72.17270000
H      -42.34320000     -31.40710000     -69.97090000
C      -44.87900000     -30.07720000     -71.92680000
C      -46.06170000     -31.70020000     -73.12320000
C      -46.54890000     -30.54430000     -73.63160000
S      -43.51450000     -29.58360000     -71.04340000
S      -45.93150000     -29.08710000     -72.87790000
H      -47.38620000     -30.49560000     -74.20510000
