40
Properties=species:S:1:pos:R:3 #=T CELL(abcABC):=T 1.889726e+02=T 90.00000=T Traj:=T positionsangstrom=T Step:=T 0=T Bead:=T pbc="F F F"
C      -48.12910000     -35.22740000     -69.76400000
C      -47.34520000     -35.88770000     -70.73000000
C      -45.99520000     -36.17890000     -70.43550000
C      -45.49880000     -35.98900000     -69.17120000
C      -46.30040000     -35.47040000     -68.14600000
C      -47.59660000     -35.11290000     -68.49260000
H      -49.16740000     -34.94320000     -69.82570000
H      -45.35550000     -36.56480000     -71.26260000
H      -45.97910000     -35.30960000     -67.13620000
H      -48.24480000     -34.69210000     -67.71890000
C      -44.06720000     -36.35470000     -68.78140000
H      -44.02960000     -37.46830000     -68.74030000
H      -43.89380000     -35.93760000     -67.86080000
C      -47.99700000     -36.17800000     -72.07000000
H      -47.96350000     -37.19580000     -72.30800000
H      -48.93520000     -35.79430000     -71.92930000
S      -42.75260000     -36.01420000     -70.05500000
S      -47.05470000     -35.43030000     -73.56430000
C      -42.79830000     -34.17320000     -70.24910000
H      -43.26160000     -33.77700000     -69.34220000
H      -41.79330000     -33.75790000     -70.20040000
C      -47.03240000     -33.65690000     -73.18650000
H      -46.70090000     -33.42470000     -72.16080000
H      -48.00710000     -33.19600000     -73.37680000
C      -45.83960000     -32.90880000     -73.95890000
H      -44.92900000     -33.53070000     -73.85160000
H      -46.00580000     -32.83680000     -75.03160000
C      -43.61930000     -33.70500000     -71.43730000
H      -44.53790000     -34.32210000     -71.39280000
H      -43.10180000     -34.04000000     -72.35380000
C      -43.84730000     -32.25600000     -71.42000000
C      -43.25510000     -31.49960000     -70.37680000
C      -44.74610000     -31.36850000     -72.24350000
H      -42.48030000     -31.79480000     -69.66980000
C      -44.70040000     -30.03530000     -71.74900000
C      -45.58370000     -31.58550000     -73.37260000
C      -46.14930000     -30.42940000     -73.83120000
S      -43.67340000     -29.78640000     -70.34400000
S      -45.71260000     -29.05220000     -72.85880000
H      -46.64850000     -30.30710000     -74.74560000
