40
Properties=species:S:1:pos:R:3 #=T CELL(abcABC):=T 1.889726e+02=T 90.00000=T Traj:=T positionsangstrom=T Step:=T 0=T Bead:=T pbc="F F F"
C      -48.16510000     -31.98880000     -73.41830000
C      -47.01540000     -31.25720000     -73.40280000
C      -45.91730000     -31.79050000     -74.04990000
C      -45.92020000     -32.99200000     -74.76780000
C      -47.10090000     -33.69030000     -74.78340000
C      -48.22690000     -33.22870000     -74.04100000
H      -49.02170000     -31.67380000     -72.88250000
H      -45.00220000     -31.23220000     -74.10170000
H      -47.21660000     -34.57050000     -75.37920000
H      -49.13020000     -33.76700000     -74.13350000
C      -44.75630000     -33.39810000     -75.53700000
H      -44.05280000     -32.54320000     -75.79440000
H      -44.90780000     -33.88740000     -76.49240000
C      -46.76300000     -30.03510000     -72.52280000
H      -45.66970000     -29.93990000     -72.54150000
H      -47.17390000     -29.06810000     -72.84220000
S      -43.84620000     -34.82250000     -74.54790000
S      -47.31270000     -29.89580000     -70.76720000
C      -43.87840000     -34.49500000     -72.75720000
H      -43.03450000     -35.03080000     -72.32420000
H      -43.75660000     -33.41840000     -72.61550000
C      -46.18620000     -30.79960000     -69.63500000
H      -46.86190000     -31.05130000     -68.80660000
H      -45.30240000     -30.28550000     -69.26680000
C      -45.59430000     -32.05350000     -70.29100000
H      -46.36270000     -32.57640000     -70.68920000
H      -44.98510000     -31.87470000     -71.18420000
C      -45.03930000     -34.93710000     -71.93580000
H      -45.53950000     -35.79190000     -72.45960000
H      -45.75470000     -34.09840000     -71.99830000
C      -44.69020000     -35.34900000     -70.57440000
C      -44.27560000     -36.57080000     -70.25580000
C      -44.51590000     -34.38790000     -69.49990000
H      -44.27960000     -37.46050000     -70.88070000
C      -44.08420000     -34.99400000     -68.27300000
C      -44.86640000     -33.00740000     -69.35600000
C      -44.40010000     -32.47990000     -68.15100000
S      -43.85340000     -36.70340000     -68.49470000
S      -43.79760000     -33.73400000     -67.09540000
H      -44.51380000     -31.46520000     -67.86980000
