40
Properties=species:S:1:pos:R:3 #=T CELL(abcABC):=T 1.889726e+02=T 90.00000=T Traj:=T positionsangstrom=T Step:=T 0=T Bead:=T pbc="F F F"
C      -47.98400000     -34.95330000     -69.69790000
C      -47.46990000     -35.99880000     -70.48780000
C      -46.20710000     -36.56300000     -70.19610000
C      -45.44260000     -36.06110000     -69.14890000
C      -46.04690000     -35.17420000     -68.22100000
C      -47.25430000     -34.63580000     -68.54730000
H      -48.98410000     -34.55580000     -69.72680000
H      -45.72850000     -37.22650000     -70.89940000
H      -45.42710000     -34.79560000     -67.40520000
H      -47.69860000     -33.87730000     -67.86310000
C      -43.99890000     -36.47540000     -68.98020000
H      -43.94240000     -37.53880000     -68.79690000
H      -43.49010000     -35.83240000     -68.18670000
C      -48.06010000     -36.32520000     -71.79200000
H      -48.20730000     -37.36480000     -71.88600000
H      -49.07590000     -35.95610000     -71.84600000
S      -42.84810000     -36.13750000     -70.44630000
S      -47.10480000     -35.63990000     -73.29110000
C      -42.69750000     -34.28410000     -70.46280000
H      -42.79550000     -33.77540000     -69.49940000
H      -41.72910000     -34.03640000     -70.87440000
C      -46.93290000     -33.82010000     -72.79500000
H      -46.62530000     -33.68570000     -71.77400000
H      -47.96120000     -33.39670000     -72.82560000
C      -45.94880000     -33.03590000     -73.72070000
H      -44.99260000     -33.53230000     -73.60070000
H      -46.28460000     -33.09410000     -74.74850000
C      -43.65250000     -33.61730000     -71.51510000
H      -44.63090000     -34.09520000     -71.50050000
H      -43.12550000     -33.85640000     -72.48740000
C      -43.86970000     -32.12400000     -71.45820000
C      -43.17280000     -31.29610000     -70.56920000
C      -44.85850000     -31.36240000     -72.11390000
H      -42.36210000     -31.65530000     -69.98260000
C      -44.71930000     -30.03530000     -71.85570000
C      -45.78210000     -31.61150000     -73.24220000
C      -46.29040000     -30.40540000     -73.68280000
S      -43.62190000     -29.54790000     -70.60430000
S      -45.69130000     -29.05600000     -72.84290000
H      -46.99310000     -30.33050000     -74.53780000
