40
Properties=species:S:1:pos:R:3 #=T CELL(abcABC):=T 1.889726e+02=T 90.00000=T Traj:=T positionsangstrom=T Step:=T 0=T Bead:=T pbc="F F F"
C      -48.03630000     -35.34960000     -70.48910000
C      -47.18650000     -36.01660000     -71.41520000
C      -45.92900000     -36.52720000     -71.03500000
C      -45.51810000     -36.46460000     -69.71110000
C      -46.40990000     -35.95050000     -68.73470000
C      -47.60220000     -35.32100000     -69.13440000
H      -48.98350000     -34.83870000     -70.78050000
H      -45.23330000     -36.87840000     -71.80540000
H      -46.20710000     -35.99650000     -67.67140000
H      -48.28930000     -34.94460000     -68.42920000
C      -44.12850000     -36.98520000     -69.41080000
H      -44.03600000     -37.90250000     -70.03210000
H      -43.99680000     -37.30070000     -68.39090000
C      -47.69960000     -36.22640000     -72.81800000
H      -47.51280000     -37.29420000     -73.15610000
H      -48.74990000     -35.98920000     -72.98370000
S      -42.69620000     -35.93800000     -69.89800000
S      -46.72350000     -35.25160000     -74.09900000
C      -43.09470000     -34.17320000     -69.65940000
H      -43.76240000     -34.14270000     -68.79390000
H      -42.29040000     -33.52080000     -69.40370000
C      -46.80930000     -33.53230000     -73.42340000
H      -46.88440000     -33.55630000     -72.29170000
H      -47.63750000     -32.91440000     -73.75360000
C      -45.44610000     -32.80750000     -73.76460000
H      -44.64530000     -33.48930000     -73.42800000
H      -45.36020000     -32.53100000     -74.85230000
C      -43.82760000     -33.53310000     -70.86840000
H      -44.79030000     -34.08020000     -70.97150000
H      -43.19220000     -33.76480000     -71.69910000
C      -44.05640000     -32.10040000     -70.70910000
C      -43.77040000     -31.30500000     -69.62150000
C      -44.74280000     -31.30660000     -71.70670000
H      -43.24580000     -31.64700000     -68.75870000
C      -44.79700000     -29.94780000     -71.40690000
C      -45.41860000     -31.49920000     -72.99550000
C      -45.94220000     -30.34850000     -73.54100000
S      -44.14890000     -29.61240000     -69.76580000
S      -45.64980000     -28.90020000     -72.58690000
H      -46.44140000     -30.16860000     -74.46560000
