40
Properties=species:S:1:pos:R:3 #=T CELL(abcABC):=T 1.889726e+02=T 90.00000=T Traj:=T positionsangstrom=T Step:=T 0=T Bead:=T pbc="F F F"
C      -48.01810000     -35.21870000     -70.53310000
C      -47.24450000     -35.77050000     -71.50890000
C      -46.04610000     -36.43130000     -71.13480000
C      -45.69300000     -36.56570000     -69.79790000
C      -46.49700000     -35.91600000     -68.85770000
C      -47.62420000     -35.21810000     -69.19770000
H      -48.96730000     -34.69850000     -70.78750000
H      -45.36090000     -36.73720000     -71.94640000
H      -46.19760000     -35.95300000     -67.80110000
H      -48.13180000     -34.80840000     -68.36170000
C      -44.32620000     -37.10080000     -69.36570000
H      -44.24810000     -38.15110000     -69.68870000
H      -44.20090000     -37.08980000     -68.26750000
C      -47.73670000     -35.76970000     -72.98190000
H      -47.80820000     -36.87350000     -73.17830000
H      -48.74120000     -35.36810000     -73.16710000
S      -42.88040000     -36.28040000     -70.18170000
S      -46.60540000     -35.05170000     -74.26870000
C      -43.15850000     -34.43020000     -69.90530000
H      -43.61780000     -34.24970000     -68.90170000
H      -42.13140000     -34.00880000     -69.83100000
C      -46.59000000     -33.26270000     -73.48980000
H      -46.61200000     -33.33320000     -72.37860000
H      -47.49190000     -32.62990000     -73.80370000
C      -45.29220000     -32.47630000     -73.93520000
H      -44.38600000     -33.12550000     -73.89220000
H      -45.37630000     -32.14940000     -74.97840000
C      -44.10660000     -33.70590000     -70.94780000
H      -45.06500000     -34.31560000     -70.99690000
H      -43.72200000     -33.82890000     -71.93550000
C      -44.24310000     -32.25520000     -70.65780000
C      -44.07980000     -31.68650000     -69.38850000
C      -44.70390000     -31.27270000     -71.64450000
H      -43.63330000     -32.12590000     -68.55870000
C      -44.66320000     -29.98540000     -71.08860000
C      -45.16700000     -31.30110000     -73.00100000
C      -45.52600000     -30.09480000     -73.50260000
S      -44.28820000     -29.97130000     -69.42380000
S      -45.31780000     -28.80170000     -72.25200000
H      -46.00070000     -29.81290000     -74.41540000
