40
Properties=species:S:1:pos:R:3 #=T CELL(abcABC):=T 1.889726e+02=T 90.00000=T Traj:=T positionsangstrom=T Step:=T 0=T Bead:=T pbc="F F F"
C      -46.68270000     -37.11630000     -72.33290000
C      -46.81090000     -35.95240000     -73.15490000
C      -47.49470000     -34.80190000     -72.67670000
C      -48.08470000     -34.85890000     -71.33000000
C      -47.97290000     -36.01230000     -70.55920000
C      -47.22530000     -37.09040000     -71.07940000
H      -46.12320000     -37.91670000     -72.75330000
H      -47.90950000     -34.04770000     -73.30000000
H      -48.52980000     -36.06630000     -69.65000000
H      -47.18270000     -37.96030000     -70.40870000
C      -48.86480000     -33.70870000     -70.77780000
H      -49.66520000     -34.13170000     -70.11680000
H      -49.39010000     -33.23300000     -71.61060000
C      -46.30340000     -35.86560000     -74.56740000
H      -46.53860000     -36.78750000     -75.18760000
H      -46.80160000     -34.98020000     -75.02750000
S      -47.88540000     -32.40300000     -69.96820000
S      -44.51520000     -35.64530000     -74.76070000
C      -46.98190000     -33.33210000     -68.63060000
H      -46.91270000     -32.66560000     -67.73910000
H      -47.51990000     -34.20670000     -68.24360000
C      -44.26890000     -34.03020000     -73.99290000
H      -45.05830000     -33.42820000     -74.52020000
H      -43.24520000     -33.70350000     -74.19880000
C      -44.27680000     -33.86400000     -72.43620000
H      -45.28870000     -33.91580000     -72.12230000
H      -43.78020000     -34.81910000     -72.09470000
C      -45.58120000     -33.65460000     -69.05000000
H      -45.62070000     -34.05180000     -70.02580000
H      -45.06680000     -34.30630000     -68.32530000
C      -44.66620000     -32.45270000     -69.27170000
C      -44.48210000     -31.58600000     -68.26010000
C      -43.83050000     -32.15530000     -70.50820000
H      -44.93380000     -31.68210000     -67.24260000
C      -43.10960000     -31.00130000     -70.31280000
C      -43.56310000     -32.64960000     -71.87370000
C      -42.63790000     -31.89560000     -72.50520000
S      -43.40870000     -30.23180000     -68.73830000
S      -42.16600000     -30.46630000     -71.66920000
H      -42.36700000     -32.08970000     -73.44070000
