40
Properties=species:S:1:pos:R:3 #=T CELL(abcABC):=T 1.889726e+02=T 90.00000=T Traj:=T positionsangstrom=T Step:=T 0=T Bead:=T pbc="F F F"
C      -48.06630000     -35.31760000     -70.51920000
C      -47.34900000     -36.05600000     -71.49300000
C      -46.12540000     -36.63930000     -71.18410000
C      -45.53210000     -36.41370000     -69.88880000
C      -46.36860000     -35.83330000     -68.93800000
C      -47.64530000     -35.28680000     -69.21270000
H      -48.89910000     -34.75830000     -70.82970000
H      -45.56140000     -37.00740000     -72.04380000
H      -45.90430000     -35.68830000     -67.98220000
H      -48.23770000     -34.81180000     -68.41020000
C      -44.15600000     -36.98190000     -69.51900000
H      -43.95170000     -37.91300000     -70.06420000
H      -43.89030000     -37.15790000     -68.44710000
C      -47.80170000     -36.14450000     -72.94980000
H      -47.66640000     -37.08280000     -73.32290000
H      -48.87810000     -35.92520000     -73.03510000
S      -42.75600000     -35.96110000     -70.26050000
S      -46.70610000     -35.13980000     -74.08370000
C      -43.08810000     -34.24390000     -69.67950000
H      -43.55050000     -34.33970000     -68.68480000
H      -42.07320000     -33.83110000     -69.49490000
C      -46.36790000     -33.59370000     -73.18640000
H      -46.35720000     -33.78850000     -72.16450000
H      -47.31620000     -33.08490000     -73.33040000
C      -45.17500000     -32.81570000     -73.67870000
H      -44.31690000     -33.40210000     -73.42890000
H      -45.14750000     -32.75100000     -74.75010000
C      -43.75610000     -33.50780000     -70.82760000
H      -44.73030000     -34.01710000     -71.01880000
H      -43.10610000     -33.50240000     -71.74740000
C      -44.13800000     -32.09610000     -70.57140000
C      -43.96560000     -31.36840000     -69.41540000
C      -44.72090000     -31.27630000     -71.60390000
H      -43.55270000     -31.83600000     -68.47510000
C      -44.93000000     -29.94890000     -71.19680000
C      -45.08710000     -31.45240000     -73.02820000
C      -45.51030000     -30.27310000     -73.60450000
S      -44.45450000     -29.72560000     -69.49520000
S      -45.60370000     -28.92420000     -72.48710000
H      -46.03810000     -30.25120000     -74.54970000
