40
Properties=species:S:1:pos:R:3 #=T CELL(abcABC):=T 1.889726e+02=T 90.00000=T Traj:=T positionsangstrom=T Step:=T 0=T Bead:=T pbc="F F F"
C      -46.23090000     -29.82770000     -70.83100000
C      -45.00340000     -30.40120000     -70.26580000
C      -43.95650000     -30.56870000     -71.10480000
C      -44.04710000     -30.24290000     -72.53580000
C      -45.17620000     -29.67320000     -73.06540000
C      -46.27520000     -29.54830000     -72.19280000
H      -47.17680000     -29.73520000     -70.30600000
H      -43.04220000     -30.96890000     -70.72890000
H      -45.23590000     -29.48480000     -74.14330000
H      -47.12340000     -29.05330000     -72.63060000
C      -42.87510000     -30.57640000     -73.50250000
H      -41.93460000     -29.85180000     -73.39890000
H      -43.16690000     -30.47110000     -74.52760000
C      -44.93950000     -30.51680000     -68.76540000
H      -43.88970000     -30.72780000     -68.46660000
H      -45.21030000     -29.53620000     -68.29110000
S      -42.11660000     -32.29050000     -73.16980000
S      -46.19530000     -31.66400000     -67.97880000
C      -43.55590000     -33.44700000     -72.92350000
H      -44.52080000     -33.02990000     -73.27200000
H      -43.39020000     -34.15660000     -73.69530000
C      -46.13790000     -33.29130000     -68.83180000
H      -46.68650000     -33.99800000     -68.17730000
H      -45.18010000     -33.65400000     -69.03680000
C      -46.78440000     -33.26910000     -70.28230000
H      -47.71520000     -32.69760000     -70.18770000
H      -46.11380000     -32.65230000     -70.95880000
C      -43.63860000     -34.03230000     -71.54490000
H      -44.15910000     -33.28830000     -70.89480000
H      -42.66780000     -34.17830000     -71.01820000
C      -44.53750000     -35.25880000     -71.69440000
C      -44.13400000     -36.40190000     -72.33410000
C      -45.92270000     -35.46090000     -71.30130000
H      -43.18750000     -36.75530000     -72.68870000
C      -46.40680000     -36.76550000     -71.54150000
C      -47.01120000     -34.64940000     -70.77750000
C      -48.20250000     -35.27530000     -70.68060000
S      -45.26890000     -37.75260000     -72.42270000
S      -48.09710000     -36.87210000     -71.35020000
H      -49.09500000     -34.87230000     -70.22960000
