40
Properties=species:S:1:pos:R:3 #=T CELL(abcABC):=T 1.889726e+02=T 90.00000=T Traj:=T positionsangstrom=T Step:=T 0=T Bead:=T pbc="F F F"
C      -45.06890000     -30.05390000     -72.59090000
C      -45.74520000     -30.93130000     -73.44060000
C      -44.98550000     -31.94570000     -74.06710000
C      -43.59150000     -32.01910000     -73.86230000
C      -42.93100000     -31.05710000     -73.11160000
C      -43.66300000     -30.05930000     -72.48040000
H      -45.62070000     -29.34140000     -72.05890000
H      -45.61920000     -32.53600000     -74.83930000
H      -41.92790000     -31.11430000     -72.88680000
H      -43.21830000     -29.30400000     -71.91840000
C      -42.77530000     -33.04490000     -74.54150000
H      -41.87470000     -32.63240000     -74.93200000
H      -43.31590000     -33.49970000     -75.37850000
C      -47.19000000     -30.78670000     -73.81930000
H      -47.76610000     -30.09780000     -73.17070000
H      -47.40810000     -30.39710000     -74.81730000
S      -42.14290000     -34.35140000     -73.33760000
S      -47.93330000     -32.49370000     -73.79860000
C      -43.43480000     -34.79010000     -72.11390000
H      -44.41340000     -34.94930000     -72.59250000
H      -43.27710000     -35.83340000     -71.76130000
C      -48.09880000     -32.67160000     -71.96500000
H      -48.89770000     -33.37230000     -71.77000000
H      -48.35000000     -31.62030000     -71.56120000
C      -46.84180000     -33.13180000     -71.32000000
H      -46.45720000     -33.88410000     -71.95370000
H      -46.11020000     -32.27140000     -71.24150000
C      -43.51680000     -33.83660000     -70.92010000
H      -43.99230000     -32.89580000     -71.23680000
H      -42.54190000     -33.68000000     -70.51710000
C      -44.37590000     -34.49980000     -69.81550000
C      -43.65250000     -35.23140000     -68.81390000
C      -45.72360000     -34.32730000     -69.34710000
H      -42.61670000     -35.25160000     -68.69810000
C      -46.05650000     -35.10500000     -68.25930000
C      -46.90130000     -33.75320000     -69.93160000
C      -48.01810000     -34.00880000     -69.20750000
S      -44.60540000     -35.78270000     -67.45660000
S      -47.75440000     -34.95680000     -67.72110000
H      -48.96500000     -33.67890000     -69.54680000
