40
Properties=species:S:1:pos:R:3 #=T CELL(abcABC):=T 1.889726e+02=T 90.00000=T Traj:=T positionsangstrom=T Step:=T 0=T Bead:=T pbc="F F F"
C      -48.16470000     -35.17160000     -70.62040000
C      -47.45680000     -35.86610000     -71.65170000
C      -46.30680000     -36.55050000     -71.27360000
C      -45.77570000     -36.49150000     -69.93550000
C      -46.51990000     -35.67060000     -69.01870000
C      -47.76320000     -35.03880000     -69.28030000
H      -49.02360000     -34.48870000     -70.91570000
H      -45.62800000     -37.05310000     -72.01700000
H      -46.18900000     -35.65390000     -67.97010000
H      -48.31850000     -34.38580000     -68.54090000
C      -44.46820000     -37.16580000     -69.56160000
H      -44.38950000     -38.12820000     -70.00040000
H      -44.28530000     -37.23320000     -68.47810000
C      -47.87180000     -35.79620000     -73.11100000
H      -48.00350000     -36.84780000     -73.51360000
H      -48.88120000     -35.30780000     -73.17620000
S      -43.01330000     -36.24920000     -70.30470000
S      -46.62590000     -34.99630000     -74.15830000
C      -43.50020000     -34.53310000     -69.76810000
H      -44.30070000     -34.52510000     -69.04010000
H      -42.66350000     -34.07110000     -69.25630000
C      -46.54470000     -33.22100000     -73.51880000
H      -46.80390000     -33.15200000     -72.42520000
H      -47.31650000     -32.56020000     -73.96000000
C      -45.10540000     -32.60100000     -73.76720000
H      -44.30930000     -33.35600000     -73.57560000
H      -45.10840000     -32.37780000     -74.81590000
C      -43.81320000     -33.69590000     -70.98050000
H      -44.71630000     -34.07530000     -71.49640000
H      -43.05360000     -33.76380000     -71.76930000
C      -44.02160000     -32.24240000     -70.65680000
C      -43.74540000     -31.71400000     -69.39150000
C      -44.57990000     -31.31090000     -71.56610000
H      -43.45360000     -32.15580000     -68.41850000
C      -44.79110000     -30.04440000     -70.96760000
C      -45.01720000     -31.32050000     -72.95830000
C      -45.35490000     -30.08470000     -73.41290000
S      -44.08010000     -29.97340000     -69.36190000
S      -45.32980000     -28.87500000     -72.08540000
H      -45.60090000     -29.79650000     -74.41020000
