40
Properties=species:S:1:pos:R:3 #=T CELL(abcABC):=T 1.889726e+02=T 90.00000=T Traj:=T positionsangstrom=T Step:=T 0=T Bead:=T pbc="F F F"
C      -45.99500000     -30.14740000     -72.36670000
C      -46.21720000     -31.16190000     -73.30070000
C      -45.10970000     -31.83470000     -73.82770000
C      -43.84730000     -31.41450000     -73.63020000
C      -43.61410000     -30.32260000     -72.67970000
C      -44.67020000     -29.72230000     -72.01000000
H      -46.88550000     -29.66990000     -72.11930000
H      -45.29420000     -32.47910000     -74.68510000
H      -42.68970000     -29.82850000     -72.67560000
H      -44.45770000     -28.91730000     -71.38160000
C      -42.78360000     -32.16740000     -74.36640000
H      -41.99060000     -31.48940000     -74.82620000
H      -43.27470000     -32.69300000     -75.19700000
C      -47.60090000     -31.35200000     -73.87300000
H      -48.31930000     -30.78550000     -73.21600000
H      -47.73870000     -30.78430000     -74.88230000
S      -41.87800000     -33.40440000     -73.23990000
S      -48.28850000     -33.04600000     -73.83400000
C      -43.25770000     -34.15080000     -72.29420000
H      -44.12540000     -34.34220000     -72.89160000
H      -42.88110000     -35.12460000     -72.01140000
C      -48.25970000     -33.53350000     -72.03570000
H      -48.85030000     -34.45320000     -71.89170000
H      -48.72950000     -32.70510000     -71.45340000
C      -46.85270000     -33.79500000     -71.55250000
H      -46.29620000     -34.37080000     -72.33110000
H      -46.40780000     -32.85800000     -71.29420000
C      -43.63410000     -33.41630000     -70.98380000
H      -44.38050000     -32.72080000     -71.31400000
H      -42.71240000     -32.89610000     -70.65510000
C      -44.10380000     -34.27890000     -69.78660000
C      -43.22600000     -34.56060000     -68.76180000
C      -45.47600000     -34.64610000     -69.57930000
H      -42.15870000     -34.39600000     -68.80320000
C      -45.55490000     -35.39300000     -68.38610000
C      -46.76520000     -34.51380000     -70.24670000
C      -47.76920000     -34.87910000     -69.41260000
S      -44.08340000     -35.54720000     -67.47500000
S      -47.26070000     -35.60480000     -67.94580000
H      -48.79780000     -34.85030000     -69.61690000
