40
Properties=species:S:1:pos:R:3 #=T CELL(abcABC):=T 1.889726e+02=T 90.00000=T Traj:=T positionsangstrom=T Step:=T 0=T Bead:=T pbc="F F F"
C      -45.16100000     -29.81570000     -73.53280000
C      -45.89930000     -30.99980000     -73.70120000
C      -45.17000000     -32.17050000     -73.93860000
C      -43.73670000     -32.10320000     -74.03460000
C      -43.06270000     -30.94590000     -73.73750000
C      -43.76360000     -29.78250000     -73.50780000
H      -45.64330000     -28.92450000     -73.31160000
H      -45.71480000     -33.18960000     -74.00360000
H      -41.97800000     -30.97550000     -73.67280000
H      -43.18230000     -28.89110000     -73.18980000
C      -43.02280000     -33.38160000     -74.31780000
H      -42.35160000     -33.27040000     -75.25220000
H      -43.82720000     -34.08410000     -74.45750000
C      -47.41490000     -30.82660000     -73.53440000
H      -47.56460000     -30.28780000     -72.52210000
H      -47.82990000     -30.32890000     -74.45050000
S      -41.81160000     -33.94720000     -73.09390000
S      -48.40330000     -32.39400000     -73.52710000
C      -42.94120000     -34.52020000     -71.71440000
H      -43.68870000     -35.26830000     -72.08280000
H      -42.27020000     -35.08380000     -71.17740000
C      -48.34290000     -33.14790000     -71.90280000
H      -48.99270000     -34.05210000     -71.94600000
H      -48.69730000     -32.50380000     -71.11740000
C      -46.96960000     -33.69000000     -71.47970000
H      -46.67530000     -34.43830000     -72.17650000
H      -46.18960000     -32.93830000     -71.51630000
C      -43.60540000     -33.49690000     -70.81820000
H      -44.47300000     -33.08010000     -71.39010000
H      -42.97390000     -32.67660000     -70.52600000
C      -44.25100000     -34.08790000     -69.53410000
C      -43.48940000     -34.41630000     -68.44500000
C      -45.65790000     -34.48950000     -69.35730000
H      -42.45460000     -34.28980000     -68.23340000
C      -45.89710000     -35.13370000     -68.17810000
C      -46.89950000     -34.33210000     -70.10420000
C      -47.95600000     -34.80080000     -69.41670000
S      -44.40500000     -35.25830000     -67.20780000
S      -47.53170000     -35.55970000     -67.87160000
H      -48.92340000     -35.03360000     -69.73460000
