40
Properties=species:S:1:pos:R:3 #=T CELL(abcABC):=T 1.889726e+02=T 90.00000=T Traj:=T positionsangstrom=T Step:=T 0=T Bead:=T pbc="F F F"
C      -46.10020000     -30.08140000     -72.31080000
C      -46.36090000     -30.94650000     -73.39180000
C      -45.27280000     -31.54310000     -73.99540000
C      -43.96730000     -31.34880000     -73.55650000
C      -43.71720000     -30.41260000     -72.53190000
C      -44.79560000     -29.84760000     -71.84660000
H      -46.99110000     -29.65230000     -71.81090000
H      -45.45740000     -32.29160000     -74.72670000
H      -42.70480000     -30.29700000     -72.19830000
H      -44.60380000     -29.15360000     -70.99830000
C      -42.76700000     -31.96940000     -74.27040000
H      -42.09070000     -31.10650000     -74.38500000
H      -42.97110000     -32.37920000     -75.20150000
C      -47.82110000     -31.19060000     -73.73220000
H      -48.51430000     -30.79540000     -73.00500000
H      -47.97950000     -30.81890000     -74.66720000
S      -41.81100000     -33.33330000     -73.24400000
S      -48.26330000     -33.01920000     -73.87890000
C      -43.12580000     -34.17660000     -72.20770000
H      -44.01200000     -34.36440000     -72.81330000
H      -42.64910000     -35.19440000     -72.04760000
C      -48.24580000     -33.62000000     -72.11480000
H      -48.97320000     -34.41390000     -72.11900000
H      -48.64820000     -32.84270000     -71.48010000
C      -46.89620000     -34.02230000     -71.63530000
H      -46.48050000     -34.87450000     -72.26280000
H      -46.21670000     -33.17590000     -71.77960000
C      -43.45390000     -33.35230000     -70.96810000
H      -44.23560000     -32.64140000     -71.21080000
H      -42.64640000     -32.74330000     -70.60460000
C      -44.04220000     -34.33430000     -69.83020000
C      -43.16650000     -34.92830000     -68.92560000
C      -45.43640000     -34.49520000     -69.53360000
H      -42.05420000     -34.93900000     -68.93370000
C      -45.54200000     -35.23270000     -68.29250000
C      -46.74380000     -34.46540000     -70.18910000
C      -47.76510000     -35.02170000     -69.47670000
S      -44.04290000     -35.66100000     -67.58270000
S      -47.21140000     -35.65660000     -67.93170000
H      -48.80340000     -35.11250000     -69.85500000
