40
Properties=species:S:1:pos:R:3 #=T CELL(abcABC):=T 1.889726e+02=T 90.00000=T Traj:=T positionsangstrom=T Step:=T 0=T Bead:=T pbc="F F F"
C      -46.13020000     -30.12260000     -72.08010000
C      -46.49310000     -30.89040000     -73.19050000
C      -45.41120000     -31.52530000     -73.83710000
C      -44.07490000     -31.26180000     -73.49130000
C      -43.77090000     -30.53030000     -72.36420000
C      -44.79360000     -29.83960000     -71.71130000
H      -46.93340000     -29.65830000     -71.43580000
H      -45.58270000     -32.14060000     -74.71780000
H      -42.67740000     -30.42610000     -72.06230000
H      -44.67550000     -29.11060000     -70.88960000
C      -42.98660000     -31.94830000     -74.22810000
H      -42.34730000     -31.18430000     -74.62700000
H      -43.26880000     -32.55760000     -75.08340000
C      -47.85210000     -31.23820000     -73.73960000
H      -48.65540000     -30.57980000     -73.24900000
H      -47.97530000     -30.91670000     -74.80670000
S      -41.93740000     -33.09060000     -73.27690000
S      -48.25170000     -33.02560000     -73.91240000
C      -43.10900000     -34.16350000     -72.33800000
H      -43.99590000     -34.33840000     -72.88540000
H      -42.62350000     -35.13350000     -72.14150000
C      -48.08480000     -33.67970000     -72.14920000
H      -48.68380000     -34.61580000     -72.22160000
H      -48.53760000     -33.00030000     -71.39260000
C      -46.68350000     -33.93840000     -71.63210000
H      -46.15080000     -34.63980000     -72.22310000
H      -46.05200000     -33.05360000     -71.78620000
C      -43.43770000     -33.44420000     -70.97030000
H      -44.18780000     -32.64690000     -71.26820000
H      -42.55160000     -32.86160000     -70.63890000
C      -43.95050000     -34.30570000     -69.81550000
C      -43.12380000     -34.80670000     -68.83990000
C      -45.33090000     -34.79980000     -69.66060000
H      -42.01110000     -34.63810000     -68.74900000
C      -45.53080000     -35.44780000     -68.44410000
C      -46.63800000     -34.48630000     -70.26370000
C      -47.71460000     -34.94910000     -69.54400000
S      -43.98480000     -35.72760000     -67.62280000
S      -47.20550000     -35.69610000     -68.01510000
H      -48.73670000     -34.80400000     -69.95250000
