40
Properties=species:S:1:pos:R:3 #=T CELL(abcABC):=T 1.889726e+02=T 90.00000=T Traj:=T positionsangstrom=T Step:=T 0=T Bead:=T pbc="F F F"
C      -46.50830000     -29.41920000     -71.98870000
C      -46.69700000     -30.58810000     -72.84760000
C      -45.57430000     -31.19760000     -73.40110000
C      -44.25790000     -30.78890000     -73.20640000
C      -44.05360000     -29.75020000     -72.30060000
C      -45.17560000     -29.02480000     -71.80840000
H      -47.34840000     -28.87700000     -71.58150000
H      -45.64420000     -31.94780000     -74.19930000
H      -43.05220000     -29.43760000     -72.29050000
H      -44.97670000     -28.02780000     -71.23710000
C      -43.07110000     -31.45910000     -73.81180000
H      -42.45840000     -30.79520000     -74.49450000
H      -43.45640000     -32.33580000     -74.41120000
C      -48.07970000     -30.93960000     -73.16720000
H      -48.67170000     -30.75650000     -72.20400000
H      -48.46340000     -30.30850000     -73.98620000
S      -41.88710000     -32.06750000     -72.56430000
S      -48.33110000     -32.73870000     -73.73510000
C      -42.80100000     -33.57000000     -71.77490000
H      -43.42470000     -34.07230000     -72.49170000
H      -42.01980000     -34.24940000     -71.51550000
C      -48.10860000     -33.75060000     -72.22990000
H      -48.54020000     -34.76720000     -72.52780000
H      -48.79560000     -33.41050000     -71.46540000
C      -46.67150000     -33.87680000     -71.68870000
H      -46.01860000     -34.07070000     -72.51760000
H      -46.37310000     -32.97300000     -71.18430000
C      -43.56940000     -33.24500000     -70.50700000
H      -44.34000000     -32.47220000     -70.66730000
H      -42.94100000     -32.73570000     -69.69090000
C      -44.00480000     -34.51440000     -69.75810000
C      -43.15490000     -35.11520000     -68.90200000
C      -45.23940000     -35.17930000     -69.86110000
H      -42.15060000     -34.81270000     -68.65120000
C      -45.32920000     -36.25530000     -68.91890000
C      -46.44740000     -35.01260000     -70.65190000
C      -47.33160000     -35.99070000     -70.37640000
S      -43.84550000     -36.48740000     -68.07450000
S      -46.91300000     -37.01430000     -69.00200000
H      -48.35550000     -36.08510000     -70.65810000
