40
Properties=species:S:1:pos:R:3 #=T CELL(abcABC):=T 1.889726e+02=T 90.00000=T Traj:=T positionsangstrom=T Step:=T 0=T Bead:=T pbc="F F F"
C      -45.68640000     -30.51840000     -68.88650000
C      -44.62480000     -31.41410000     -68.88980000
C      -43.62860000     -31.30810000     -69.89450000
C      -43.79160000     -30.39850000     -70.95890000
C      -44.91960000     -29.58780000     -70.99120000
C      -45.83330000     -29.56780000     -69.93750000
H      -46.47100000     -30.74250000     -68.14810000
H      -42.73440000     -31.95900000     -69.82990000
H      -45.05450000     -28.82380000     -71.81060000
H      -46.62920000     -28.78710000     -69.88440000
C      -42.92890000     -30.44840000     -72.13650000
H      -42.04290000     -30.98710000     -71.81890000
H      -42.77760000     -29.49770000     -72.63390000
C      -44.30330000     -32.34000000     -67.68090000
H      -43.43180000     -32.94220000     -68.04010000
H      -44.14280000     -31.78390000     -66.82300000
S      -43.57100000     -31.64740000     -73.48330000
S      -45.83650000     -33.38530000     -67.15080000
C      -45.38980000     -31.38070000     -73.62640000
H      -45.55960000     -30.38430000     -73.23760000
H      -45.63130000     -31.31330000     -74.68950000
C      -46.27740000     -34.70900000     -68.37640000
H      -46.87680000     -35.41870000     -67.83490000
H      -45.29070000     -35.21440000     -68.57650000
C      -46.71410000     -34.26540000     -69.84480000
H      -47.75330000     -33.97790000     -69.93020000
H      -46.18050000     -33.25250000     -69.90680000
C      -46.35980000     -32.34390000     -72.86810000
H      -47.35960000     -31.91380000     -72.97470000
H      -46.12190000     -32.23850000     -71.79210000
C      -46.18650000     -33.82770000     -73.23960000
C      -46.00930000     -34.16880000     -74.51370000
C      -46.03760000     -34.99650000     -72.31520000
H      -46.04580000     -33.53900000     -75.41810000
C      -45.70210000     -36.14990000     -73.02120000
C      -46.34750000     -35.29530000     -70.90070000
C      -46.15310000     -36.62700000     -70.54810000
S      -45.62380000     -35.88110000     -74.73800000
S      -45.65430000     -37.59460000     -71.93440000
H      -46.43800000     -36.92030000     -69.50380000
