40
Properties=species:S:1:pos:R:3 #=T CELL(abcABC):=T 1.889726e+02=T 90.00000=T Traj:=T positionsangstrom=T Step:=T 0=T Bead:=T pbc="F F F"
C      -48.63380000     -34.68290000     -71.05230000
C      -47.66720000     -35.44930000     -71.68770000
C      -46.54550000     -36.02560000     -70.99960000
C      -46.50700000     -35.78690000     -69.61940000
C      -47.47370000     -35.01520000     -68.95020000
C      -48.48220000     -34.35510000     -69.68590000
H      -49.48090000     -34.32420000     -71.56390000
H      -45.82620000     -36.60850000     -71.59980000
H      -47.36020000     -35.01920000     -67.83150000
H      -49.26790000     -33.66920000     -69.27600000
C      -45.41790000     -36.45930000     -68.86770000
H      -45.69470000     -37.52190000     -68.79990000
H      -45.36750000     -36.03750000     -67.83600000
C      -47.78410000     -35.83220000     -73.12290000
H      -47.79630000     -36.90650000     -73.25060000
H      -48.76070000     -35.51300000     -73.41660000
S      -43.72670000     -36.38590000     -69.63120000
S      -46.57350000     -35.06410000     -74.33920000
C      -43.22510000     -34.63100000     -69.59580000
H      -43.80380000     -34.10830000     -68.76340000
H      -42.17290000     -34.62740000     -69.39390000
C      -46.35330000     -33.51940000     -73.50390000
H      -46.24100000     -33.73950000     -72.44090000
H      -47.26440000     -32.90940000     -73.61500000
C      -44.98490000     -32.93360000     -73.89980000
H      -44.21100000     -33.63750000     -73.53770000
H      -44.83710000     -32.72410000     -74.97220000
C      -43.49110000     -33.86440000     -70.92220000
H      -44.43980000     -34.17060000     -71.34130000
H      -42.77300000     -34.20790000     -71.64070000
C      -43.41690000     -32.44920000     -70.75490000
C      -42.91290000     -31.79100000     -69.66430000
C      -44.09810000     -31.53800000     -71.68200000
H      -42.35560000     -32.23730000     -68.82680000
C      -44.32980000     -30.26930000     -71.15040000
C      -44.68650000     -31.66320000     -73.03280000
C      -45.26500000     -30.49640000     -73.51020000
S      -43.31900000     -30.10640000     -69.59210000
S      -45.21020000     -29.21630000     -72.28940000
H      -45.72990000     -30.30900000     -74.41960000
