40
Properties=species:S:1:pos:R:3 #=T CELL(abcABC):=T 1.889726e+02=T 90.00000=T Traj:=T positionsangstrom=T Step:=T 0=T Bead:=T pbc="F F F"
C      -46.29260000     -29.94780000     -72.10000000
C      -46.64190000     -30.86770000     -73.12850000
C      -45.52680000     -31.47820000     -73.77350000
C      -44.19160000     -31.21570000     -73.39530000
C      -43.90290000     -30.43100000     -72.27810000
C      -44.99330000     -29.82930000     -71.64630000
H      -47.05300000     -29.42370000     -71.52100000
H      -45.75530000     -32.22160000     -74.59700000
H      -42.90860000     -30.22670000     -72.00650000
H      -44.77910000     -29.20080000     -70.80810000
C      -43.17070000     -31.96900000     -74.20980000
H      -42.64070000     -31.31780000     -74.89790000
H      -43.71100000     -32.64370000     -74.83960000
C      -48.07060000     -31.14230000     -73.49030000
H      -48.67750000     -30.83610000     -72.69400000
H      -48.30120000     -30.63330000     -74.41610000
S      -41.91680000     -32.84020000     -73.22360000
S      -48.30520000     -32.88610000     -73.91580000
C      -42.87380000     -34.11400000     -72.19870000
H      -43.69880000     -34.45940000     -72.82140000
H      -42.18450000     -34.97950000     -71.97450000
C      -47.94670000     -34.00200000     -72.33140000
H      -48.04220000     -35.01420000     -72.70380000
H      -48.87180000     -33.81120000     -71.81270000
C      -46.66410000     -33.71450000     -71.52970000
H      -45.86530000     -33.81080000     -72.24350000
H      -46.66190000     -32.69100000     -71.26480000
C      -43.26190000     -33.39040000     -70.83140000
H      -43.95830000     -32.57550000     -71.11070000
H      -42.27800000     -32.91470000     -70.47310000
C      -43.82820000     -34.21530000     -69.72320000
C      -43.10240000     -34.71490000     -68.67770000
C      -45.26530000     -34.69800000     -69.59890000
H      -42.11090000     -34.43400000     -68.48550000
C      -45.48160000     -35.47760000     -68.48450000
C      -46.51160000     -34.50880000     -70.29530000
C      -47.59310000     -35.26850000     -69.81670000
S      -43.99390000     -35.77520000     -67.62400000
S      -47.07210000     -36.17670000     -68.40370000
H      -48.63920000     -35.39130000     -70.06390000
