40
Properties=species:S:1:pos:R:3 #=T CELL(abcABC):=T 1.889726e+02=T 90.00000=T Traj:=T positionsangstrom=T Step:=T 0=T Bead:=T pbc="F F F"
C      -48.66550000     -34.83940000     -71.09080000
C      -47.65170000     -35.63320000     -71.71570000
C      -46.65010000     -36.26240000     -71.02020000
C      -46.52690000     -35.91500000     -69.64210000
C      -47.54460000     -35.10630000     -68.99780000
C      -48.56080000     -34.51150000     -69.77390000
H      -49.39350000     -34.39070000     -71.78730000
H      -45.86520000     -36.89260000     -71.52570000
H      -47.36900000     -34.78670000     -67.98340000
H      -49.28470000     -33.74480000     -69.41220000
C      -45.38720000     -36.42200000     -68.77510000
H      -45.62020000     -37.46450000     -68.41490000
H      -45.43130000     -35.89920000     -67.90270000
C      -47.77340000     -35.92270000     -73.19480000
H      -47.76090000     -36.98640000     -73.32630000
H      -48.78420000     -35.58780000     -73.65340000
S      -43.66450000     -36.54000000     -69.38380000
S      -46.54070000     -35.11020000     -74.31700000
C      -43.33560000     -34.65510000     -69.51640000
H      -43.97960000     -34.14700000     -68.80630000
H      -42.26020000     -34.44550000     -69.15560000
C      -46.28210000     -33.44810000     -73.43910000
H      -46.40600000     -33.43750000     -72.36280000
H      -47.00410000     -32.70030000     -73.78670000
C      -44.94100000     -32.84480000     -73.84970000
H      -44.16250000     -33.54380000     -73.59360000
H      -44.93640000     -32.69230000     -74.92310000
C      -43.64650000     -33.93590000     -70.86940000
H      -44.63540000     -34.18790000     -71.25080000
H      -42.91260000     -34.15920000     -71.72310000
C      -43.55060000     -32.43400000     -70.78320000
C      -43.10330000     -31.72550000     -69.70690000
C      -44.14450000     -31.46620000     -71.85500000
H      -42.54690000     -32.18990000     -68.85150000
C      -44.02900000     -30.15170000     -71.33590000
C      -44.80060000     -31.47710000     -73.12680000
C      -45.45320000     -30.29170000     -73.41480000
S      -43.27110000     -30.02180000     -69.79010000
S      -45.03710000     -29.02670000     -72.19860000
H      -45.89060000     -30.03040000     -74.39520000
