40
Properties=species:S:1:pos:R:3 #=T CELL(abcABC):=T 1.889726e+02=T 90.00000=T Traj:=T positionsangstrom=T Step:=T 0=T Bead:=T pbc="F F F"
C      -48.74930000     -35.26510000     -71.07810000
C      -47.76620000     -36.08750000     -71.67580000
C      -46.67050000     -36.56430000     -70.92240000
C      -46.69680000     -36.35360000     -69.52360000
C      -47.60940000     -35.52310000     -68.95260000
C      -48.59740000     -34.91970000     -69.74770000
H      -49.50680000     -34.79970000     -71.64030000
H      -45.81600000     -37.07970000     -71.32750000
H      -47.61480000     -35.18150000     -67.84450000
H      -49.33720000     -34.23120000     -69.28860000
C      -45.51320000     -36.85540000     -68.79410000
H      -45.49490000     -37.96950000     -68.61530000
H      -45.44440000     -36.48590000     -67.71910000
C      -47.79770000     -36.06060000     -73.18740000
H      -47.65800000     -37.02320000     -73.70080000
H      -48.76860000     -35.63360000     -73.43350000
S      -43.85020000     -36.34750000     -69.65730000
S      -46.24510000     -35.23060000     -73.81720000
C      -43.75150000     -34.43700000     -69.39070000
H      -44.46500000     -34.09470000     -68.49870000
H      -42.75310000     -34.15660000     -69.20380000
C      -46.32230000     -33.47850000     -73.24890000
H      -46.29110000     -33.43480000     -72.14500000
H      -47.20870000     -32.93850000     -73.54210000
C      -45.03120000     -32.81010000     -73.76880000
H      -44.12830000     -33.34430000     -73.50230000
H      -45.09040000     -32.53860000     -74.76790000
C      -44.08650000     -33.68130000     -70.67180000
H      -45.01470000     -33.85550000     -71.15360000
H      -43.39060000     -34.05290000     -71.44490000
C      -43.78680000     -32.10600000     -70.67080000
C      -43.14260000     -31.47780000     -69.63350000
C      -44.16250000     -31.24390000     -71.75390000
H      -42.87450000     -31.82660000     -68.65010000
C      -43.93520000     -29.91370000     -71.43920000
C      -44.88230000     -31.42650000     -73.05010000
C      -45.19540000     -30.22140000     -73.61110000
S      -43.15300000     -29.73010000     -69.93870000
S      -44.57790000     -28.82530000     -72.70340000
H      -45.58110000     -30.14530000     -74.55660000
