40
Properties=species:S:1:pos:R:3 #=T CELL(abcABC):=T 1.889726e+02=T 90.00000=T Traj:=T positionsangstrom=T Step:=T 0=T Bead:=T pbc="F F F"
C      -45.65020000     -28.77520000     -70.39250000
C      -44.79190000     -29.85200000     -70.58880000
C      -44.89990000     -30.54820000     -71.80020000
C      -45.90890000     -30.23520000     -72.78230000
C      -46.81850000     -29.22170000     -72.44530000
C      -46.70210000     -28.57000000     -71.20620000
H      -45.52770000     -28.24360000     -69.46210000
H      -44.38560000     -31.46640000     -71.99220000
H      -47.57190000     -28.79010000     -73.12380000
H      -47.23920000     -27.69460000     -70.94570000
C      -46.05930000     -30.97720000     -74.10660000
H      -45.09790000     -31.42470000     -74.49620000
H      -46.34470000     -30.32500000     -74.90620000
C      -43.68460000     -30.10440000     -69.55780000
H      -42.87130000     -30.51820000     -70.09040000
H      -43.32800000     -29.20100000     -69.09440000
S      -47.38010000     -32.22060000     -74.06980000
S      -44.20210000     -31.32810000     -68.25760000
C      -46.57830000     -33.58590000     -73.02910000
H      -46.69960000     -33.19290000     -71.96330000
H      -47.24540000     -34.46860000     -73.11120000
C      -43.95680000     -32.98130000     -68.96740000
H      -43.85840000     -33.70430000     -68.14680000
H      -43.03790000     -32.91590000     -69.55770000
C      -45.09260000     -33.44010000     -69.86260000
H      -46.13510000     -33.25950000     -69.47940000
H      -45.00140000     -32.82410000     -70.87200000
C      -45.10980000     -34.01430000     -73.30070000
H      -44.55500000     -33.23030000     -72.88480000
H      -44.85030000     -33.98460000     -74.31500000
C      -44.89060000     -35.44700000     -72.70070000
C      -44.97450000     -36.56930000     -73.48420000
C      -44.95580000     -35.75140000     -71.31850000
H      -45.01480000     -36.44270000     -74.60590000
C      -44.91500000     -37.12050000     -71.04050000
C      -44.96880000     -34.97870000     -70.08830000
C      -45.00600000     -35.83440000     -68.98330000
S      -44.91460000     -38.04300000     -72.54560000
S      -44.99320000     -37.49900000     -69.35630000
H      -45.18090000     -35.45280000     -67.99390000
