40
Properties=species:S:1:pos:R:3 #=T CELL(abcABC):=T 1.889726e+02=T 90.00000=T Traj:=T positionsangstrom=T Step:=T 0=T Bead:=T pbc="F F F"
C      -45.05610000     -37.21460000     -69.53070000
C      -45.63010000     -36.36380000     -70.42820000
C      -46.01980000     -35.05520000     -70.01080000
C      -45.54010000     -34.52490000     -68.77890000
C      -44.86650000     -35.42500000     -67.97010000
C      -44.70280000     -36.82500000     -68.26170000
H      -44.95540000     -38.24650000     -69.81780000
H      -46.63240000     -34.37950000     -70.71980000
H      -44.58220000     -35.05720000     -67.01060000
H      -44.30010000     -37.50280000     -67.58550000
C      -45.54600000     -32.99830000     -68.50640000
H      -46.13400000     -32.76520000     -67.62960000
H      -46.08500000     -32.57560000     -69.38400000
C      -45.90490000     -36.91240000     -71.74070000
H      -45.27980000     -37.78660000     -71.90660000
H      -46.98110000     -37.20920000     -71.81020000
S      -43.91660000     -32.14450000     -68.30070000
S      -45.61620000     -35.86420000     -73.27560000
C      -42.96060000     -32.74980000     -69.81130000
H      -41.88630000     -32.66800000     -69.43890000
H      -43.19360000     -33.80590000     -69.93810000
C      -43.99230000     -35.05140000     -73.01480000
H      -43.15870000     -35.67910000     -73.25610000
H      -43.93870000     -34.62170000     -71.99550000
C      -44.02390000     -33.84640000     -73.98980000
H      -43.03490000     -33.32380000     -73.88480000
H      -43.98600000     -33.95420000     -75.06310000
C      -43.14890000     -31.81080000     -71.00670000
H      -42.55240000     -32.17440000     -71.81350000
H      -42.67250000     -30.88530000     -70.67440000
C      -44.51190000     -31.47900000     -71.41390000
C      -45.12310000     -30.43430000     -70.76800000
C      -45.28760000     -31.90470000     -72.60790000
H      -44.65830000     -29.94970000     -69.86560000
C      -46.46260000     -31.15150000     -72.77920000
C      -45.10750000     -32.86250000     -73.66530000
C      -46.15690000     -32.86140000     -74.54190000
S      -46.77050000     -30.10660000     -71.42550000
S      -47.45840000     -31.71020000     -74.09650000
H      -46.29550000     -33.53910000     -75.34660000
