40
Properties=species:S:1:pos:R:3 #=T CELL(abcABC):=T 1.889726e+02=T 90.00000=T Traj:=T positionsangstrom=T Step:=T 0=T Bead:=T pbc="F F F"
C      -45.14260000     -37.38390000     -69.42790000
C      -45.49490000     -36.44890000     -70.43910000
C      -45.54550000     -35.07350000     -70.15600000
C      -45.36850000     -34.58000000     -68.86940000
C      -44.90890000     -35.54370000     -67.92140000
C      -44.79810000     -36.90260000     -68.16150000
H      -45.11140000     -38.40650000     -69.80340000
H      -45.77370000     -34.41810000     -71.08130000
H      -44.66440000     -35.07070000     -66.95100000
H      -44.51490000     -37.51130000     -67.31950000
C      -45.68750000     -33.20720000     -68.44450000
H      -46.05990000     -33.07850000     -67.41940000
H      -46.39570000     -32.72580000     -69.08830000
C      -45.93580000     -36.91830000     -71.79820000
H      -45.63450000     -37.95520000     -71.92900000
H      -47.00500000     -36.99090000     -71.67820000
S      -44.04890000     -32.11350000     -68.40540000
S      -45.58470000     -35.98150000     -73.34700000
C      -43.12800000     -32.65870000     -69.90390000
H      -42.10290000     -32.88310000     -69.61150000
H      -43.49970000     -33.63580000     -70.26440000
C      -44.10120000     -34.90120000     -72.87030000
H      -43.26790000     -35.65180000     -72.92710000
H      -44.03920000     -34.47160000     -71.84060000
C      -43.88010000     -33.69430000     -73.83840000
H      -42.85780000     -33.28870000     -73.72640000
H      -43.83750000     -34.11330000     -74.87310000
C      -43.12860000     -31.64720000     -71.03200000
H      -42.70180000     -32.00020000     -72.02390000
H      -42.57800000     -30.77100000     -70.69690000
C      -44.56190000     -31.34080000     -71.37450000
C      -45.25260000     -30.34030000     -70.75370000
C      -45.29600000     -31.84460000     -72.53700000
H      -45.05720000     -29.74620000     -69.88380000
C      -46.54820000     -31.22650000     -72.69160000
C      -45.01030000     -32.68350000     -73.66630000
C      -45.97480000     -32.68370000     -74.58730000
S      -46.80000000     -30.11480000     -71.39330000
S      -47.40640000     -31.76620000     -74.10290000
H      -46.05080000     -33.29140000     -75.44900000
