40
Properties=species:S:1:pos:R:3 #=T CELL(abcABC):=T 1.889726e+02=T 90.00000=T Traj:=T positionsangstrom=T Step:=T 0=T Bead:=T pbc="F F F"
C      -44.98220000     -37.13690000     -69.51090000
C      -45.49210000     -36.29760000     -70.48860000
C      -45.81750000     -34.98750000     -70.16980000
C      -45.38720000     -34.45180000     -68.95260000
C      -44.76690000     -35.28960000     -68.01460000
C      -44.51800000     -36.64430000     -68.31560000
H      -44.74480000     -38.18640000     -69.69930000
H      -46.42560000     -34.35310000     -70.80230000
H      -44.46130000     -34.82030000     -67.08380000
H      -43.93730000     -37.29380000     -67.69490000
C      -45.65370000     -32.98070000     -68.59760000
H      -46.16250000     -32.92760000     -67.65920000
H      -46.19350000     -32.35510000     -69.33760000
C      -46.04030000     -36.86940000     -71.73090000
H      -45.74040000     -37.93790000     -71.81780000
H      -47.14660000     -36.83150000     -71.59030000
S      -43.91570000     -32.39440000     -68.28970000
S      -45.83490000     -35.77780000     -73.20460000
C      -43.03070000     -32.92060000     -69.81420000
H      -42.01220000     -33.06860000     -69.70540000
H      -43.45120000     -33.84170000     -70.18750000
C      -44.11740000     -35.11800000     -72.98280000
H      -43.30160000     -35.79010000     -73.30320000
H      -43.81450000     -34.91310000     -71.95510000
C      -43.95790000     -33.81140000     -73.85430000
H      -43.05710000     -33.37360000     -73.45480000
H      -43.89670000     -34.20180000     -74.86490000
C      -43.17040000     -31.96600000     -71.07850000
H      -42.79580000     -32.47860000     -71.91310000
H      -42.53390000     -31.03470000     -71.04930000
C      -44.52460000     -31.49890000     -71.45300000
C      -45.11370000     -30.42280000     -70.82020000
C      -45.29110000     -31.95800000     -72.57440000
H      -44.58150000     -29.82080000     -70.01890000
C      -46.51170000     -31.29140000     -72.63470000
C      -45.13370000     -32.87150000     -73.61620000
C      -46.19310000     -32.81280000     -74.50330000
S      -46.66410000     -29.98850000     -71.45150000
S      -47.46650000     -31.70530000     -74.03060000
H      -46.31490000     -33.30080000     -75.47480000
