40
Properties=species:S:1:pos:R:3 #=T CELL(abcABC):=T 1.889726e+02=T 90.00000=T Traj:=T positionsangstrom=T Step:=T 0=T Bead:=T pbc="F F F"
C      -48.88320000     -34.56630000     -70.34990000
C      -48.13360000     -35.39390000     -71.20070000
C      -47.08690000     -36.09290000     -70.67630000
C      -46.75350000     -36.01500000     -69.34810000
C      -47.52830000     -35.19510000     -68.45820000
C      -48.59440000     -34.49030000     -68.98910000
H      -49.60780000     -33.87390000     -70.70840000
H      -46.46520000     -36.66620000     -71.29050000
H      -47.24950000     -35.19690000     -67.39760000
H      -49.19680000     -33.88610000     -68.37850000
C      -45.51490000     -36.73380000     -68.81600000
H      -45.77770000     -37.79830000     -68.89840000
H      -45.29290000     -36.49500000     -67.82710000
C      -48.47600000     -35.33220000     -72.76850000
H      -48.85550000     -36.39040000     -73.06590000
H      -49.32440000     -34.62450000     -73.00430000
S      -43.96850000     -36.53040000     -69.75620000
S      -46.96210000     -34.94420000     -73.74040000
C      -43.52930000     -34.75430000     -69.68340000
H      -43.66470000     -34.28720000     -68.69090000
H      -42.37950000     -34.79270000     -69.79490000
C      -46.64420000     -33.19860000     -73.19520000
H      -46.52590000     -33.28690000     -72.08380000
H      -47.32210000     -32.40660000     -73.58150000
C      -45.25090000     -32.88390000     -73.84980000
H      -44.64770000     -33.79980000     -73.65490000
H      -45.41510000     -32.77320000     -74.89600000
C      -44.12740000     -33.95630000     -70.81410000
H      -45.20640000     -34.12620000     -70.83160000
H      -43.80760000     -34.47590000     -71.77110000
C      -43.72220000     -32.47830000     -70.91830000
C      -43.16520000     -31.85630000     -69.80340000
C      -43.98270000     -31.56560000     -72.02680000
H      -42.88190000     -32.43500000     -68.95240000
C      -43.54920000     -30.28510000     -71.74390000
C      -44.54040000     -31.66910000     -73.32880000
C      -44.62120000     -30.43220000     -73.97110000
S      -42.81330000     -30.14460000     -70.07640000
S      -43.85940000     -29.13070000     -73.02270000
H      -45.06530000     -30.04830000     -75.00670000
