40
Properties=species:S:1:pos:R:3 #=T CELL(abcABC):=T 1.889726e+02=T 90.00000=T Traj:=T positionsangstrom=T Step:=T 0=T Bead:=T pbc="F F F"
C      -44.97460000     -37.41000000     -69.63400000
C      -45.49890000     -36.53040000     -70.57990000
C      -45.70790000     -35.18200000     -70.19340000
C      -45.44010000     -34.72970000     -68.90230000
C      -44.97360000     -35.64790000     -67.93550000
C      -44.71580000     -36.96470000     -68.29520000
H      -44.65090000     -38.40850000     -69.80710000
H      -45.92150000     -34.51090000     -70.95870000
H      -44.85070000     -35.28400000     -66.93360000
H      -44.25040000     -37.66120000     -67.58860000
C      -45.57550000     -33.27260000     -68.59750000
H      -46.21650000     -33.19350000     -67.74180000
H      -46.07360000     -32.64850000     -69.38600000
C      -45.48300000     -37.05010000     -71.97590000
H      -44.61020000     -37.57680000     -72.16870000
H      -46.28550000     -37.74240000     -72.26860000
S      -43.94920000     -32.48200000     -68.27010000
S      -45.60970000     -35.72820000     -73.30560000
C      -43.25500000     -32.67530000     -69.96550000
H      -42.18590000     -32.99660000     -69.89880000
H      -43.84240000     -33.48100000     -70.45230000
C      -43.94890000     -34.88680000     -72.84920000
H      -43.20170000     -35.69710000     -72.89960000
H      -44.17070000     -34.69720000     -71.76740000
C      -43.67340000     -33.57770000     -73.60970000
H      -42.66740000     -33.23210000     -73.21930000
H      -43.43610000     -33.93520000     -74.62460000
C      -43.34660000     -31.34410000     -70.74890000
H      -42.57930000     -31.40210000     -71.55970000
H      -43.01480000     -30.54610000     -70.10280000
C      -44.65510000     -31.04420000     -71.39390000
C      -45.41750000     -30.02690000     -70.82830000
C      -45.27120000     -31.71830000     -72.49300000
H      -45.14650000     -29.48690000     -69.93850000
C      -46.58300000     -31.26290000     -72.67600000
C      -44.91930000     -32.64480000     -73.58360000
C      -45.96670000     -32.85250000     -74.44720000
S      -46.99870000     -29.88570000     -71.64700000
S      -47.48020000     -31.97380000     -73.93730000
H      -46.01180000     -33.60330000     -75.25870000
