40
Properties=species:S:1:pos:R:3 #=T CELL(abcABC):=T 1.889726e+02=T 90.00000=T Traj:=T positionsangstrom=T Step:=T 0=T Bead:=T pbc="F F F"
C      -48.80080000     -34.36560000     -70.40520000
C      -48.20370000     -35.28820000     -71.25540000
C      -47.17460000     -36.10430000     -70.69200000
C      -46.73920000     -35.99820000     -69.36190000
C      -47.39090000     -35.03700000     -68.55070000
C      -48.44310000     -34.26100000     -69.04970000
H      -49.67650000     -33.75210000     -70.69340000
H      -46.62800000     -36.76750000     -71.35100000
H      -47.07820000     -34.90140000     -67.50100000
H      -48.79670000     -33.48200000     -68.42190000
C      -45.56460000     -36.81740000     -68.88000000
H      -45.56390000     -37.85440000     -68.96970000
H      -45.43360000     -36.60790000     -67.79060000
C      -48.46650000     -35.34910000     -72.72780000
H      -48.77120000     -36.33700000     -73.07770000
H      -49.28880000     -34.66260000     -72.87970000
S      -43.96070000     -36.54740000     -69.72240000
S      -46.97020000     -34.94150000     -73.74170000
C      -43.58830000     -34.77110000     -69.63150000
H      -43.89280000     -34.40770000     -68.66280000
H      -42.48660000     -34.69230000     -69.58870000
C      -46.51770000     -33.27510000     -73.29940000
H      -46.54720000     -33.21110000     -72.24710000
H      -47.23490000     -32.57560000     -73.75360000
C      -45.14340000     -32.97300000     -73.93510000
H      -44.46580000     -33.71810000     -73.65290000
H      -45.27070000     -32.94650000     -75.04870000
C      -44.28410000     -33.98530000     -70.74840000
H      -45.32260000     -34.12690000     -70.81200000
H      -43.92300000     -34.48390000     -71.72080000
C      -43.93090000     -32.44170000     -70.83910000
C      -43.33750000     -31.81200000     -69.73970000
C      -44.09370000     -31.60500000     -72.00950000
H      -43.34470000     -32.11820000     -68.66120000
C      -43.67050000     -30.33390000     -71.70190000
C      -44.56070000     -31.71890000     -73.35010000
C      -44.35000000     -30.50500000     -73.95810000
S      -43.01120000     -30.10680000     -70.05400000
S      -43.60870000     -29.26580000     -73.00870000
H      -44.75760000     -30.23200000     -74.88540000
