40
Properties=species:S:1:pos:R:3 #=T CELL(abcABC):=T 1.889726e+02=T 90.00000=T Traj:=T positionsangstrom=T Step:=T 0=T Bead:=T pbc="F F F"
C      -48.51760000     -34.35960000     -71.01760000
C      -47.80390000     -35.31260000     -71.76420000
C      -46.85370000     -36.08110000     -71.05840000
C      -46.68950000     -35.89060000     -69.67570000
C      -47.43140000     -34.93640000     -68.93580000
C      -48.33980000     -34.16400000     -69.66230000
H      -49.17940000     -33.66500000     -71.60800000
H      -46.21660000     -36.78930000     -71.59330000
H      -47.37460000     -34.83610000     -67.88150000
H      -48.89070000     -33.34730000     -69.20400000
C      -45.75220000     -36.90760000     -69.02080000
H      -45.93830000     -37.89560000     -69.48260000
H      -45.81640000     -36.93950000     -67.95310000
C      -47.88900000     -35.34350000     -73.25320000
H      -48.24510000     -36.38910000     -73.57680000
H      -48.67120000     -34.64710000     -73.61670000
S      -44.04100000     -36.65150000     -69.59510000
S      -46.30580000     -34.96750000     -74.11420000
C      -43.55820000     -34.90150000     -69.50420000
H      -43.69670000     -34.46920000     -68.53520000
H      -42.40670000     -34.93800000     -69.38500000
C      -45.95800000     -33.31150000     -73.55560000
H      -46.16850000     -33.17420000     -72.46700000
H      -46.56800000     -32.64600000     -74.22210000
C      -44.48830000     -32.96100000     -73.78670000
H      -43.90890000     -33.88570000     -73.43080000
H      -44.25920000     -32.94330000     -74.88060000
C      -43.85360000     -33.99390000     -70.76130000
H      -44.77090000     -34.45920000     -71.25250000
H      -43.04750000     -34.10100000     -71.48910000
C      -44.11130000     -32.58800000     -70.57850000
C      -44.18070000     -31.88380000     -69.42230000
C      -44.05440000     -31.59370000     -71.67480000
H      -44.29340000     -32.34020000     -68.42000000
C      -44.07470000     -30.26970000     -71.27360000
C      -44.06800000     -31.68810000     -73.09760000
C      -44.08980000     -30.47460000     -73.76670000
S      -44.26700000     -30.07810000     -69.51740000
S      -44.04690000     -29.13250000     -72.54400000
H      -44.06760000     -30.20090000     -74.83170000
