40
Properties=species:S:1:pos:R:3 #=T CELL(abcABC):=T 1.889726e+02=T 90.00000=T Traj:=T positionsangstrom=T Step:=T 0=T Bead:=T pbc="F F F"
C      -48.39810000     -34.16320000     -70.91020000
C      -47.80800000     -35.27840000     -71.62270000
C      -46.95460000     -36.15920000     -70.92970000
C      -46.66240000     -35.95220000     -69.56380000
C      -47.45500000     -35.00230000     -68.85930000
C      -48.22980000     -34.05420000     -69.55650000
H      -48.98230000     -33.44940000     -71.39880000
H      -46.43710000     -36.98630000     -71.50510000
H      -47.22900000     -34.84510000     -67.80690000
H      -48.70700000     -33.30500000     -68.93430000
C      -45.60430000     -36.61690000     -68.83170000
H      -45.83450000     -37.62360000     -68.58850000
H      -45.49530000     -36.13270000     -67.84080000
C      -47.98480000     -35.38810000     -73.13920000
H      -48.32080000     -36.42930000     -73.32160000
H      -48.79100000     -34.59700000     -73.47600000
S      -43.97480000     -36.71600000     -69.73820000
S      -46.41420000     -35.03410000     -74.16000000
C      -43.53530000     -34.88330000     -69.51380000
H      -44.18460000     -34.67650000     -68.59400000
H      -42.43670000     -34.87580000     -69.49130000
C      -46.04740000     -33.24660000     -73.83310000
H      -46.47930000     -32.94530000     -72.83960000
H      -46.74090000     -32.65470000     -74.49100000
C      -44.51400000     -32.91600000     -73.97920000
H      -43.84210000     -33.71150000     -73.63630000
H      -44.33030000     -32.69040000     -75.06040000
C      -44.05650000     -34.10640000     -70.76210000
H      -45.13150000     -34.37690000     -70.94200000
H      -43.49150000     -34.43790000     -71.62850000
C      -43.94870000     -32.61470000     -70.59610000
C      -43.87110000     -31.93140000     -69.42620000
C      -43.99740000     -31.64320000     -71.71480000
H      -43.84820000     -32.27920000     -68.42290000
C      -44.02060000     -30.26600000     -71.27160000
C      -44.20360000     -31.65290000     -73.14740000
C      -44.35940000     -30.36040000     -73.70170000
S      -44.05480000     -30.19460000     -69.53130000
S      -44.20530000     -29.09640000     -72.54470000
H      -44.35990000     -29.98850000     -74.73900000
