40
Properties=species:S:1:pos:R:3 #=T CELL(abcABC):=T 1.889726e+02=T 90.00000=T Traj:=T positionsangstrom=T Step:=T 0=T Bead:=T pbc="F F F"
C      -48.87990000     -33.69290000     -69.97470000
C      -48.11020000     -32.59880000     -69.44380000
C      -46.99000000     -32.81630000     -68.61270000
C      -46.58150000     -34.14340000     -68.42920000
C      -47.34160000     -35.22140000     -68.88860000
C      -48.55660000     -35.00670000     -69.49360000
H      -49.76820000     -33.57970000     -70.64200000
H      -46.41180000     -31.99950000     -68.30740000
H      -47.02670000     -36.26080000     -68.73980000
H      -49.15310000     -35.80450000     -69.91220000
C      -45.37260000     -34.49830000     -67.62170000
H      -45.32780000     -35.57480000     -67.62730000
H      -45.51720000     -34.30720000     -66.53610000
C      -48.61240000     -31.22000000     -69.68260000
H      -49.50110000     -31.16120000     -70.33300000
H      -48.89780000     -30.70180000     -68.76780000
S      -43.86020000     -33.71020000     -68.23410000
S      -47.25020000     -30.16950000     -70.56520000
C      -43.68670000     -34.30600000     -69.95360000
H      -43.30390000     -35.33910000     -69.93350000
H      -44.71270000     -34.34790000     -70.35810000
C      -46.79920000     -31.15660000     -72.03330000
H      -46.82520000     -30.47930000     -72.92690000
H      -47.55960000     -31.89660000     -72.17400000
C      -45.47130000     -31.85250000     -71.78490000
H      -44.61700000     -31.09290000     -71.71310000
H      -45.38230000     -32.42330000     -70.85150000
C      -42.69710000     -33.46100000     -70.76330000
H      -41.66930000     -33.37630000     -70.33610000
H      -42.97110000     -32.38190000     -70.91410000
C      -42.74180000     -33.98330000     -72.15480000
C      -41.88770000     -34.87450000     -72.71660000
C      -43.81590000     -33.57790000     -73.04320000
H      -41.03070000     -35.29000000     -72.30250000
C      -43.64680000     -34.15450000     -74.25700000
C      -45.08180000     -32.81740000     -72.90300000
C      -45.75220000     -32.86470000     -74.08180000
S      -42.37560000     -35.34780000     -74.39870000
S      -44.96790000     -33.85860000     -75.34680000
H      -46.71680000     -32.47170000     -74.34860000
