40
Properties=species:S:1:pos:R:3 #=T CELL(abcABC):=T 1.889726e+02=T 90.00000=T Traj:=T positionsangstrom=T Step:=T 0=T Bead:=T pbc="F F F"
C      -48.70840000     -34.34560000     -70.42780000
C      -47.94440000     -35.15340000     -71.28930000
C      -46.86610000     -35.91480000     -70.77020000
C      -46.57760000     -35.88830000     -69.38140000
C      -47.32430000     -35.08060000     -68.56630000
C      -48.43080000     -34.31430000     -69.05920000
H      -49.60720000     -33.81330000     -70.68890000
H      -46.28340000     -36.52140000     -71.56330000
H      -47.23200000     -35.10040000     -67.45660000
H      -48.97500000     -33.60790000     -68.41230000
C      -45.46360000     -36.76940000     -68.81020000
H      -45.71550000     -37.76130000     -68.96550000
H      -45.36670000     -36.54840000     -67.72030000
C      -48.44950000     -35.41120000     -72.67870000
H      -48.54790000     -36.45930000     -72.93860000
H      -49.43990000     -34.85490000     -72.76290000
S      -43.86240000     -36.58830000     -69.59770000
S      -47.25900000     -34.90410000     -74.05810000
C      -43.50130000     -34.80250000     -69.51420000
H      -43.92630000     -34.33580000     -68.59030000
H      -42.38490000     -34.78750000     -69.26690000
C      -46.73610000     -33.29090000     -73.48350000
H      -46.91160000     -33.18540000     -72.42130000
H      -47.42930000     -32.51320000     -73.89860000
C      -45.20840000     -32.99740000     -73.88410000
H      -44.59880000     -33.83940000     -73.68870000
H      -45.17230000     -32.89470000     -75.00530000
C      -43.89550000     -34.04610000     -70.81570000
H      -45.02440000     -34.29070000     -70.96060000
H      -43.36110000     -34.43830000     -71.65410000
C      -43.69810000     -32.54980000     -70.77050000
C      -42.96450000     -31.89220000     -69.81900000
C      -44.13950000     -31.65440000     -71.86760000
H      -42.56900000     -32.33450000     -68.89290000
C      -43.76380000     -30.32010000     -71.61130000
C      -44.72260000     -31.69750000     -73.17590000
C      -44.77870000     -30.50430000     -73.81030000
S      -42.75050000     -30.19080000     -70.13490000
S      -44.11000000     -29.16050000     -72.88410000
H      -45.18150000     -30.26750000     -74.89180000
