40
Properties=species:S:1:pos:R:3 #=T CELL(abcABC):=T 1.889726e+02=T 90.00000=T Traj:=T positionsangstrom=T Step:=T 0=T Bead:=T pbc="F F F"
C      -46.55990000     -33.13930000     -74.24750000
C      -47.36750000     -32.32590000     -73.43320000
C      -46.80730000     -31.10410000     -72.99510000
C      -45.52380000     -30.72390000     -73.43740000
C      -44.82250000     -31.53100000     -74.29010000
C      -45.33090000     -32.80570000     -74.69860000
H      -46.93740000     -34.15770000     -74.56830000
H      -47.43250000     -30.43190000     -72.43090000
H      -43.94910000     -31.07400000     -74.72840000
H      -44.79930000     -33.47520000     -75.38450000
C      -44.91220000     -29.39220000     -73.06490000
H      -45.64230000     -28.55170000     -73.23370000
H      -43.93500000     -29.26790000     -73.60970000
C      -48.76340000     -32.69090000     -73.00990000
H      -48.98420000     -32.10590000     -72.11070000
H      -49.46420000     -32.46430000     -73.78970000
S      -44.56150000     -29.31220000     -71.20970000
S      -48.84200000     -34.53020000     -72.72830000
C      -43.71500000     -30.91830000     -70.75810000
H      -42.90940000     -31.12950000     -71.52010000
H      -43.07820000     -30.68150000     -69.88360000
C      -47.78720000     -34.87990000     -71.25090000
H      -48.19520000     -35.81770000     -70.94160000
H      -47.99570000     -34.22160000     -70.45760000
C      -46.34300000     -35.00070000     -71.70700000
H      -46.41370000     -35.70100000     -72.59730000
H      -45.95550000     -34.10380000     -72.09430000
C      -44.62420000     -32.13830000     -70.55880000
H      -45.00920000     -32.63290000     -71.45450000
H      -45.47980000     -31.76770000     -69.96620000
C      -43.96920000     -33.34200000     -69.78030000
C      -42.96120000     -33.22470000     -68.80770000
C      -44.41930000     -34.69940000     -69.97470000
H      -42.41850000     -32.30290000     -68.71260000
C      -43.66270000     -35.55960000     -69.13190000
C      -45.38050000     -35.53070000     -70.66240000
C      -45.32970000     -36.92020000     -70.45150000
S      -42.41760000     -34.68420000     -68.18530000
S      -44.09030000     -37.26830000     -69.28100000
H      -46.05550000     -37.72790000     -70.72300000
