40
Properties=species:S:1:pos:R:3 #=T CELL(abcABC):=T 1.889726e+02=T 90.00000=T Traj:=T positionsangstrom=T Step:=T 0=T Bead:=T pbc="F F F"
C      -48.53580000     -34.23050000     -71.17390000
C      -47.79710000     -35.20260000     -71.88600000
C      -46.86350000     -36.00200000     -71.23520000
C      -46.67110000     -35.90490000     -69.81380000
C      -47.54980000     -35.07150000     -69.05640000
C      -48.46360000     -34.32380000     -69.75700000
H      -49.19320000     -33.59510000     -71.67930000
H      -46.19700000     -36.71380000     -71.78280000
H      -47.46450000     -35.02590000     -68.03220000
H      -49.01260000     -33.55380000     -69.21370000
C      -45.66990000     -36.82080000     -69.11680000
H      -46.01070000     -37.83840000     -69.30240000
H      -45.68130000     -36.72120000     -68.00230000
C      -47.89220000     -35.20750000     -73.40500000
H      -48.42180000     -36.09950000     -73.69950000
H      -48.37680000     -34.28670000     -73.78730000
S      -43.88500000     -36.54720000     -69.50630000
S      -46.20460000     -35.10580000     -74.30770000
C      -43.99100000     -34.71200000     -69.34090000
H      -44.88340000     -34.46800000     -68.71920000
H      -43.09880000     -34.33790000     -68.75430000
C      -45.69060000     -33.39620000     -73.52090000
H      -45.75720000     -33.33730000     -72.44290000
H      -46.40940000     -32.68180000     -73.86440000
C      -44.28430000     -32.99780000     -73.89790000
H      -43.58970000     -33.73490000     -73.51340000
H      -44.02720000     -32.82600000     -74.94230000
C      -43.98340000     -34.04520000     -70.69680000
H      -44.79730000     -34.39220000     -71.39520000
H      -43.05230000     -34.20050000     -71.22370000
C      -44.18940000     -32.56780000     -70.52750000
C      -44.22440000     -31.92980000     -69.34060000
C      -44.22130000     -31.56830000     -71.61120000
H      -44.38090000     -32.40050000     -68.37600000
C      -44.30230000     -30.26090000     -71.14730000
C      -44.09630000     -31.70390000     -73.06210000
C      -43.94560000     -30.46220000     -73.60770000
S      -44.34560000     -30.14530000     -69.39210000
S      -43.95070000     -29.16700000     -72.43430000
H      -44.06940000     -30.15820000     -74.62140000
