40
Properties=species:S:1:pos:R:3 #=T CELL(abcABC):=T 1.889726e+02=T 90.00000=T Traj:=T positionsangstrom=T Step:=T 0=T Bead:=T pbc="F F F"
C      -46.72270000     -33.01730000     -74.43080000
C      -47.35280000     -32.23670000     -73.50160000
C      -46.71920000     -31.12350000     -73.03530000
C      -45.46240000     -30.67380000     -73.47950000
C      -44.79680000     -31.52190000     -74.38470000
C      -45.41430000     -32.63140000     -74.92140000
H      -47.17690000     -34.00270000     -74.71490000
H      -47.19770000     -30.48380000     -72.24530000
H      -43.75930000     -31.31740000     -74.66070000
H      -44.87680000     -33.25560000     -75.56930000
C      -44.78380000     -29.46070000     -72.91380000
H      -45.36180000     -28.61980000     -73.23710000
H      -43.88280000     -29.26470000     -73.44890000
C      -48.63470000     -32.65840000     -72.83520000
H      -48.65010000     -32.27050000     -71.80250000
H      -49.54130000     -32.16600000     -73.29150000
S      -44.55070000     -29.42080000     -71.09210000
S      -49.03970000     -34.45820000     -72.69410000
C      -43.61590000     -30.99520000     -70.69510000
H      -42.94600000     -31.01340000     -71.55280000
H      -43.08260000     -30.77040000     -69.77840000
C      -47.83580000     -34.90130000     -71.32140000
H      -48.32860000     -35.76950000     -70.82870000
H      -47.96640000     -34.02290000     -70.58300000
C      -46.36370000     -34.99410000     -71.68920000
H      -46.13260000     -35.59030000     -72.57570000
H      -46.10120000     -33.97400000     -72.01740000
C      -44.60170000     -32.23320000     -70.56310000
H      -44.88530000     -32.41320000     -71.64480000
H      -45.50530000     -31.91670000     -70.04550000
C      -43.93520000     -33.40160000     -69.93470000
C      -42.92870000     -33.19760000     -69.03630000
C      -44.36130000     -34.81590000     -69.97920000
H      -42.53280000     -32.20140000     -68.86980000
C      -43.59120000     -35.63380000     -69.13700000
C      -45.42550000     -35.58010000     -70.63070000
C      -45.42760000     -36.93950000     -70.30690000
S      -42.35910000     -34.69200000     -68.27880000
S      -44.09320000     -37.21860000     -69.16000000
H      -46.19850000     -37.66700000     -70.65850000
