40
Properties=species:S:1:pos:R:3 #=T CELL(abcABC):=T 1.889726e+02=T 90.00000=T Traj:=T positionsangstrom=T Step:=T 0=T Bead:=T pbc="F F F"
C      -48.96820000     -33.67020000     -69.90410000
C      -48.23570000     -32.57380000     -69.32100000
C      -47.05050000     -32.86140000     -68.62430000
C      -46.63560000     -34.22370000     -68.47620000
C      -47.34300000     -35.27070000     -69.05650000
C      -48.52770000     -34.99050000     -69.79480000
H      -50.03350000     -33.49700000     -70.40330000
H      -46.54550000     -32.01830000     -68.15240000
H      -47.13130000     -36.33800000     -68.85410000
H      -49.13330000     -35.75910000     -70.25260000
C      -45.43190000     -34.50370000     -67.55620000
H      -45.08120000     -35.54470000     -67.53540000
H      -45.71890000     -34.17700000     -66.55530000
C      -48.59590000     -31.15960000     -69.67580000
H      -49.43100000     -31.23330000     -70.29830000
H      -49.00500000     -30.64090000     -68.75680000
S      -43.82540000     -33.52050000     -68.07800000
S      -47.29810000     -30.22570000     -70.53100000
C      -43.54270000     -34.36850000     -69.70060000
H      -43.05190000     -35.29460000     -69.51690000
H      -44.47010000     -34.55350000     -70.28160000
C      -46.76060000     -31.34460000     -71.91440000
H      -46.84990000     -30.66520000     -72.75880000
H      -47.52000000     -32.14690000     -72.06540000
C      -45.30790000     -31.90850000     -71.82290000
H      -44.60660000     -31.12270000     -71.76910000
H      -45.32690000     -32.45800000     -70.84320000
C      -42.58120000     -33.58100000     -70.70750000
H      -41.52790000     -33.78570000     -70.37880000
H      -42.79860000     -32.54540000     -70.68410000
C      -42.80100000     -34.03370000     -72.12410000
C      -41.92580000     -34.88480000     -72.71990000
C      -43.91880000     -33.67620000     -73.08620000
H      -41.14930000     -35.35900000     -72.17760000
C      -43.68140000     -34.22200000     -74.38080000
C      -45.05860000     -32.75110000     -73.02460000
C      -45.67190000     -32.66760000     -74.24250000
S      -42.29940000     -35.28170000     -74.40370000
S      -45.04280000     -33.87070000     -75.44720000
H      -46.47730000     -32.00350000     -74.63810000
