40
Properties=species:S:1:pos:R:3 #=T CELL(abcABC):=T 1.889726e+02=T 90.00000=T Traj:=T positionsangstrom=T Step:=T 0=T Bead:=T pbc="F F F"
C      -46.92700000     -32.80730000     -74.70860000
C      -47.36540000     -32.18990000     -73.54920000
C      -46.63500000     -31.11500000     -73.06830000
C      -45.46570000     -30.71470000     -73.59950000
C      -45.05050000     -31.34970000     -74.79730000
C      -45.73070000     -32.42330000     -75.34480000
H      -47.61180000     -33.59700000     -75.15400000
H      -47.14770000     -30.60990000     -72.22780000
H      -44.20460000     -30.87150000     -75.33170000
H      -45.39610000     -32.75120000     -76.38490000
C      -44.49750000     -29.75300000     -73.00750000
H      -44.62180000     -28.77730000     -73.45280000
H      -43.50660000     -30.05270000     -73.32120000
C      -48.65670000     -32.50550000     -72.89320000
H      -48.74650000     -31.79020000     -71.98130000
H      -49.44170000     -32.13610000     -73.59440000
S      -44.59050000     -29.50000000     -71.08670000
S      -48.97680000     -34.28300000     -72.47060000
C      -43.65460000     -31.02990000     -70.44370000
H      -42.68590000     -31.14830000     -70.92330000
H      -43.32640000     -30.93280000     -69.40230000
C      -47.78130000     -34.49130000     -71.13090000
H      -48.19660000     -35.22720000     -70.35000000
H      -47.71660000     -33.53360000     -70.53080000
C      -46.36670000     -34.85140000     -71.61940000
H      -46.41170000     -35.65990000     -72.40620000
H      -45.88510000     -34.03210000     -72.08180000
C      -44.39520000     -32.33950000     -70.56610000
H      -44.59790000     -32.44720000     -71.62340000
H      -45.31160000     -32.22400000     -69.99460000
C      -43.72230000     -33.50960000     -69.94190000
C      -42.60610000     -33.43760000     -69.10800000
C      -44.27130000     -34.86250000     -69.92720000
H      -41.97570000     -32.65950000     -68.73960000
C      -43.58040000     -35.76250000     -69.11450000
C      -45.43180000     -35.45770000     -70.59570000
C      -45.55440000     -36.80160000     -70.24030000
S      -42.26520000     -34.95750000     -68.26660000
S      -44.34890000     -37.30390000     -69.05740000
H      -46.27250000     -37.48080000     -70.71220000
