40
Properties=species:S:1:pos:R:3 #=T CELL(abcABC):=T 1.889726e+02=T 90.00000=T Traj:=T positionsangstrom=T Step:=T 0=T Bead:=T pbc="F F F"
C      -48.51060000     -34.35990000     -71.36370000
C      -47.64220000     -35.23710000     -72.09960000
C      -46.70600000     -36.09390000     -71.42980000
C      -46.67800000     -36.13660000     -70.00900000
C      -47.54780000     -35.31440000     -69.30450000
C      -48.40810000     -34.41000000     -69.97940000
H      -49.20030000     -33.69820000     -71.84810000
H      -46.08550000     -36.74070000     -72.10580000
H      -47.58280000     -35.37160000     -68.21670000
H      -49.08310000     -33.87640000     -69.30250000
C      -45.81620000     -37.10550000     -69.23310000
H      -45.89080000     -38.09320000     -69.70820000
H      -46.15530000     -37.15280000     -68.19290000
C      -47.75100000     -35.32610000     -73.61040000
H      -48.03820000     -36.31150000     -73.93370000
H      -48.50590000     -34.68160000     -74.05800000
S      -44.03140000     -36.56970000     -69.36660000
S      -46.11970000     -34.98700000     -74.34710000
C      -43.94810000     -34.70080000     -69.10490000
H      -44.84240000     -34.46480000     -68.56870000
H      -43.11230000     -34.53980000     -68.50790000
C      -45.78810000     -33.30430000     -73.86560000
H      -46.43110000     -33.06050000     -73.02090000
H      -46.17140000     -32.64130000     -74.73480000
C      -44.28900000     -32.93740000     -73.68750000
H      -43.84710000     -33.77370000     -73.13860000
H      -43.88950000     -32.95270000     -74.72240000
C      -43.99330000     -33.94890000     -70.45440000
H      -44.78940000     -34.43370000     -70.97060000
H      -43.06570000     -34.29860000     -71.01360000
C      -44.17670000     -32.48140000     -70.34480000
C      -44.38760000     -31.81450000     -69.18730000
C      -43.98830000     -31.52730000     -71.45820000
H      -44.50370000     -32.20830000     -68.16850000
C      -44.08650000     -30.21430000     -71.02950000
C      -43.99600000     -31.62840000     -72.90740000
C      -43.94870000     -30.44170000     -73.58810000
S      -44.40180000     -30.02750000     -69.31370000
S      -44.07550000     -29.09600000     -72.39360000
H      -43.97620000     -30.29080000     -74.63680000
