40
Properties=species:S:1:pos:R:3 #=T CELL(abcABC):=T 1.889726e+02=T 90.00000=T Traj:=T positionsangstrom=T Step:=T 0=T Bead:=T pbc="F F F"
C      -48.51860000     -34.62200000     -71.53830000
C      -47.60090000     -35.42740000     -72.23460000
C      -46.78270000     -36.38590000     -71.51450000
C      -46.76990000     -36.38970000     -70.10980000
C      -47.53370000     -35.42890000     -69.43570000
C      -48.46340000     -34.64410000     -70.16800000
H      -49.19530000     -33.89890000     -72.08290000
H      -46.22780000     -37.05640000     -72.14810000
H      -47.60250000     -35.26430000     -68.33610000
H      -49.21720000     -33.98490000     -69.62170000
C      -45.73020000     -37.31830000     -69.35080000
H      -45.53920000     -38.31550000     -69.85840000
H      -46.03540000     -37.35130000     -68.30880000
C      -47.52010000     -35.32060000     -73.75660000
H      -47.81490000     -36.26930000     -74.30710000
H      -48.33690000     -34.61070000     -74.02990000
S      -44.04030000     -36.55890000     -69.28010000
S      -45.91500000     -34.87700000     -74.60170000
C      -44.23760000     -34.75170000     -68.99870000
H      -45.03670000     -34.52530000     -68.24210000
H      -43.28750000     -34.48670000     -68.42300000
C      -45.57430000     -33.03800000     -74.07660000
H      -46.30740000     -32.89440000     -73.29210000
H      -45.76260000     -32.35020000     -74.89800000
C      -44.16260000     -32.93350000     -73.53570000
H      -43.86910000     -33.79130000     -72.93980000
H      -43.46010000     -32.96280000     -74.34340000
C      -44.23460000     -33.90530000     -70.27340000
H      -45.00410000     -34.20160000     -70.94380000
H      -43.27320000     -34.09920000     -70.78920000
C      -44.17670000     -32.35650000     -70.17520000
C      -44.27280000     -31.64050000     -68.99210000
C      -44.17130000     -31.51090000     -71.31410000
H      -44.31360000     -31.96970000     -67.98420000
C      -44.20250000     -30.14710000     -70.92980000
C      -44.17480000     -31.62290000     -72.76050000
C      -44.16780000     -30.40370000     -73.39300000
S      -44.32800000     -29.86120000     -69.23910000
S      -44.13130000     -29.06610000     -72.33160000
H      -44.14920000     -30.34130000     -74.48660000
