40
Properties=species:S:1:pos:R:3 #=T CELL(abcABC):=T 1.889726e+02=T 90.00000=T Traj:=T positionsangstrom=T Step:=T 0=T Bead:=T pbc="F F F"
C      -46.55810000     -33.15340000     -74.43740000
C      -47.42440000     -32.36860000     -73.66780000
C      -46.93570000     -31.12300000     -73.19710000
C      -45.64690000     -30.68230000     -73.50070000
C      -44.80380000     -31.49150000     -74.30850000
C      -45.27150000     -32.63080000     -74.81370000
H      -46.76050000     -34.11320000     -74.75970000
H      -47.53550000     -30.41280000     -72.62620000
H      -43.81610000     -31.13480000     -74.56890000
H      -44.57260000     -33.28370000     -75.51100000
C      -45.09270000     -29.37660000     -72.92490000
H      -45.80790000     -28.53740000     -73.10210000
H      -44.20850000     -29.09710000     -73.52070000
C      -48.80680000     -32.88500000     -73.41350000
H      -49.50670000     -32.25480000     -72.85140000
H      -49.30040000     -33.09600000     -74.38500000
S      -44.66230000     -29.43160000     -71.14110000
S      -48.86010000     -34.56930000     -72.54820000
C      -43.79500000     -31.04770000     -71.04700000
H      -43.48860000     -31.40710000     -72.03620000
H      -42.88980000     -30.83170000     -70.39590000
C      -47.45680000     -34.67870000     -71.31760000
H      -47.84710000     -35.30020000     -70.57300000
H      -47.43580000     -33.73440000     -70.79680000
C      -46.05360000     -35.08980000     -71.82350000
H      -46.12990000     -35.77610000     -72.71640000
H      -45.56340000     -34.21320000     -72.26240000
C      -44.72310000     -32.16950000     -70.52590000
H      -45.35300000     -32.50060000     -71.39310000
H      -45.43710000     -31.62430000     -69.88790000
C      -44.02370000     -33.32270000     -69.78410000
C      -43.10290000     -33.04080000     -68.82250000
C      -44.34990000     -34.77700000     -69.91150000
H      -42.78010000     -32.15590000     -68.32220000
C      -43.56860000     -35.48730000     -69.03730000
C      -45.19120000     -35.59620000     -70.75460000
C      -45.17070000     -36.94100000     -70.39590000
S      -42.52320000     -34.54350000     -68.04360000
S      -43.99890000     -37.28720000     -69.06220000
H      -45.61140000     -37.74760000     -70.91770000
