40
Properties=species:S:1:pos:R:3 #=T CELL(abcABC):=T 1.889726e+02=T 90.00000=T Traj:=T positionsangstrom=T Step:=T 0=T Bead:=T pbc="F F F"
C      -46.03140000     -37.10870000     -70.22440000
C      -46.10230000     -35.87130000     -70.89070000
C      -45.43970000     -34.72020000     -70.41990000
C      -44.62660000     -34.87370000     -69.33720000
C      -44.43820000     -36.11470000     -68.71290000
C      -45.10910000     -37.22940000     -69.16510000
H      -46.42570000     -37.96630000     -70.66030000
H      -45.46730000     -33.74390000     -70.84810000
H      -43.84250000     -36.24270000     -67.86470000
H      -45.08080000     -38.23570000     -68.72380000
C      -43.88590000     -33.67940000     -68.79340000
H      -43.70920000     -33.77660000     -67.67410000
H      -44.53640000     -32.75050000     -68.69050000
C      -46.93740000     -35.76880000     -72.17590000
H      -47.62480000     -36.56350000     -72.22710000
H      -47.58070000     -34.88430000     -72.21280000
S      -42.16490000     -33.30120000     -69.60220000
S      -46.01920000     -35.97690000     -73.74520000
C      -42.42470000     -33.18220000     -71.40220000
H      -41.58470000     -33.47670000     -71.89960000
H      -43.03640000     -34.05690000     -71.67710000
C      -44.81640000     -34.62000000     -73.90060000
H      -44.07880000     -34.79170000     -74.70150000
H      -44.06720000     -34.59870000     -73.06640000
C      -45.45030000     -33.27170000     -74.15880000
H      -44.72030000     -32.65830000     -74.69150000
H      -46.29290000     -33.54320000     -74.80400000
C      -43.00000000     -31.78330000     -71.83730000
H      -42.99250000     -31.75490000     -72.96650000
H      -42.19470000     -31.07660000     -71.49620000
C      -44.32340000     -31.29370000     -71.43000000
C      -44.42000000     -30.38680000     -70.41110000
C      -45.63560000     -31.69690000     -71.95420000
H      -43.72250000     -30.02760000     -69.62120000
C      -46.67980000     -31.05830000     -71.31820000
C      -46.09930000     -32.45580000     -73.04610000
C      -47.47840000     -32.41870000     -73.19600000
S      -46.12370000     -30.01060000     -70.02860000
S      -48.23410000     -31.36090000     -72.05810000
H      -48.13560000     -32.84820000     -73.98810000
