40
Properties=species:S:1:pos:R:3 #=T CELL(abcABC):=T 1.889726e+02=T 90.00000=T Traj:=T positionsangstrom=T Step:=T 0=T Bead:=T pbc="F F F"
C      -48.09830000     -35.03530000     -72.87870000
C      -46.88550000     -35.70110000     -73.18920000
C      -46.14960000     -36.33600000     -72.20660000
C      -46.56830000     -36.38350000     -70.89320000
C      -47.66840000     -35.58160000     -70.52360000
C      -48.46180000     -35.00330000     -71.49590000
H      -48.74890000     -34.54870000     -73.56350000
H      -45.26000000     -36.91110000     -72.59360000
H      -47.78710000     -35.52080000     -69.45720000
H      -49.22310000     -34.19660000     -71.28100000
C      -45.85070000     -37.10990000     -69.75400000
H      -45.67560000     -38.17360000     -70.09130000
H      -46.36630000     -37.24070000     -68.85200000
C      -46.32410000     -35.74230000     -74.59560000
H      -45.89000000     -36.75110000     -74.75980000
H      -46.99790000     -35.54350000     -75.37860000
S      -44.16920000     -36.52510000     -69.32590000
S      -44.84070000     -34.62130000     -74.80960000
C      -44.38470000     -34.76920000     -68.89420000
H      -45.35430000     -34.77330000     -68.51120000
H      -43.63830000     -34.48340000     -68.17040000
C      -45.35430000     -33.27940000     -73.68290000
H      -45.83070000     -33.52750000     -72.78670000
H      -46.12420000     -32.66570000     -74.15270000
C      -44.11470000     -32.34420000     -73.35650000
H      -43.40670000     -33.01580000     -72.81260000
H      -43.72310000     -31.92660000     -74.27200000
C      -44.31060000     -33.91580000     -70.15090000
H      -44.97070000     -34.35490000     -70.87890000
H      -43.31140000     -34.00200000     -70.54450000
C      -44.61210000     -32.45210000     -69.87480000
C      -44.91510000     -31.98160000     -68.60490000
C      -44.60530000     -31.35590000     -70.81410000
H      -45.13370000     -32.63920000     -67.76840000
C      -44.81520000     -30.08230000     -70.22530000
C      -44.34460000     -31.22040000     -72.23950000
C      -44.31210000     -29.89280000     -72.66120000
S      -45.10910000     -30.26010000     -68.48250000
S      -44.58380000     -28.78520000     -71.39100000
H      -44.00710000     -29.50640000     -73.57610000
