40
Properties=species:S:1:pos:R:3 #=T CELL(abcABC):=T 1.889726e+02=T 90.00000=T Traj:=T positionsangstrom=T Step:=T 0=T Bead:=T pbc="F F F"
C      -44.63890000     -36.26720000     -68.37710000
C      -44.72340000     -34.87570000     -68.39870000
C      -45.99890000     -34.26730000     -68.66960000
C      -47.11960000     -35.09650000     -68.94790000
C      -46.98090000     -36.49100000     -68.96580000
C      -45.78720000     -37.07370000     -68.62050000
H      -43.86610000     -36.75680000     -67.90580000
H      -46.07720000     -33.16790000     -68.64980000
H      -47.86680000     -37.02080000     -69.30700000
H      -45.80680000     -38.16290000     -68.52440000
C      -48.48110000     -34.55400000     -69.16940000
H      -48.60440000     -33.45160000     -68.85300000
H      -49.24890000     -35.12800000     -68.66260000
C      -43.61790000     -33.92420000     -67.84960000
H      -44.13860000     -32.96610000     -67.73820000
H      -43.39460000     -34.23900000     -66.84420000
S      -49.08080000     -34.61100000     -70.94810000
S      -42.05170000     -33.93360000     -68.90250000
C      -47.66810000     -33.99730000     -71.94410000
H      -46.97980000     -34.77800000     -72.05500000
H      -48.08880000     -33.84960000     -72.94320000
C      -42.48840000     -32.93560000     -70.36400000
H      -41.60900000     -32.76940000     -70.95760000
H      -42.73200000     -31.88340000     -70.07930000
C      -43.70600000     -33.43390000     -71.23570000
H      -43.69500000     -34.49720000     -71.45580000
H      -44.57600000     -33.25750000     -70.63750000
C      -47.05210000     -32.67140000     -71.48350000
H      -46.29400000     -32.78700000     -70.70860000
H      -47.87600000     -32.08980000     -71.07890000
C      -46.34140000     -32.00760000     -72.69060000
C      -47.02720000     -31.16550000     -73.53680000
C      -44.95440000     -32.07240000     -73.04250000
H      -48.05220000     -31.01830000     -73.55670000
C      -44.65010000     -31.32110000     -74.21800000
C      -43.78300000     -32.72960000     -72.55080000
C      -42.68270000     -32.71390000     -73.43370000
S      -46.03110000     -30.51030000     -74.84900000
S      -43.09120000     -31.63090000     -74.82950000
H      -41.71720000     -33.25830000     -73.33520000
