40
Properties=species:S:1:pos:R:3 #=T CELL(abcABC):=T 1.889726e+02=T 90.00000=T Traj:=T positionsangstrom=T Step:=T 0=T Bead:=T pbc="F F F"
C      -45.97750000     -37.09190000     -70.31130000
C      -46.28490000     -35.79410000     -70.72430000
C      -45.59860000     -34.72340000     -70.18160000
C      -44.62280000     -34.82240000     -69.24090000
C      -44.27420000     -36.11920000     -68.76410000
C      -44.98940000     -37.22080000     -69.25380000
H      -46.46340000     -37.88780000     -70.87030000
H      -45.91680000     -33.76030000     -70.59250000
H      -43.49140000     -36.21760000     -68.04300000
H      -44.73650000     -38.21670000     -68.90740000
C      -43.95030000     -33.62880000     -68.76090000
H      -43.71820000     -33.50710000     -67.68790000
H      -44.54340000     -32.76600000     -68.95210000
C      -47.11160000     -35.53560000     -71.92420000
H      -47.95140000     -36.19210000     -71.93680000
H      -47.40260000     -34.43380000     -71.99480000
S      -42.21510000     -33.22360000     -69.43580000
S      -46.31950000     -35.80130000     -73.57770000
C      -42.43290000     -33.40420000     -71.25150000
H      -41.43070000     -33.67530000     -71.71040000
H      -43.04070000     -34.25080000     -71.48120000
C      -44.96060000     -34.64140000     -73.71120000
H      -44.23350000     -35.13090000     -74.36480000
H      -44.41260000     -34.58160000     -72.84260000
C      -45.34770000     -33.30430000     -74.26470000
H      -44.40590000     -32.75140000     -74.38130000
H      -45.84390000     -33.42870000     -75.29240000
C      -42.99730000     -32.16080000     -71.99070000
H      -43.00700000     -32.41190000     -73.03330000
H      -42.21620000     -31.41160000     -71.86650000
C      -44.30970000     -31.57900000     -71.49710000
C      -44.31200000     -30.81060000     -70.38250000
C      -45.57070000     -31.73670000     -72.17820000
H      -43.45330000     -30.92930000     -69.74410000
C      -46.47440000     -30.93300000     -71.53030000
C      -46.15140000     -32.42510000     -73.34280000
C      -47.46520000     -32.15340000     -73.49210000
S      -45.93960000     -30.22600000     -70.07000000
S      -48.11890000     -31.16040000     -72.18000000
H      -47.99570000     -32.45620000     -74.42850000
