40
Properties=species:S:1:pos:R:3 #=T CELL(abcABC):=T 1.889726e+02=T 90.00000=T Traj:=T positionsangstrom=T Step:=T 0=T Bead:=T pbc="F F F"
C      -46.07240000     -28.64360000     -72.25020000
C      -45.95490000     -30.06470000     -72.46780000
C      -46.43720000     -30.87420000     -71.40260000
C      -46.92380000     -30.29270000     -70.19670000
C      -47.12520000     -28.90420000     -70.12450000
C      -46.76510000     -28.08250000     -71.22080000
H      -45.74160000     -28.11560000     -73.12140000
H      -46.50560000     -31.93040000     -71.38590000
H      -47.70510000     -28.47710000     -69.28620000
H      -46.74130000     -26.99530000     -71.11650000
C      -47.16480000     -31.13220000     -68.99120000
H      -47.81760000     -32.00580000     -69.17340000
H      -47.58470000     -30.53950000     -68.24210000
C      -45.60690000     -30.66720000     -73.85310000
H      -46.33090000     -31.38870000     -74.14520000
H      -45.51470000     -29.82580000     -74.62140000
S      -45.63750000     -31.71470000     -68.06200000
S      -43.87480000     -31.31000000     -73.98810000
C      -45.79040000     -33.53920000     -68.29880000
H      -45.05660000     -34.00430000     -67.71530000
H      -46.78220000     -33.88620000     -68.02040000
C      -43.90180000     -32.76900000     -72.77810000
H      -44.07330000     -32.34820000     -71.74050000
H      -42.91450000     -33.15440000     -72.86850000
C      -45.05750000     -33.68830000     -73.10650000
H      -45.91970000     -33.28220000     -72.53480000
H      -45.36620000     -33.62040000     -74.18070000
C      -45.67240000     -33.98960000     -69.78550000
H      -44.99740000     -33.31880000     -70.24810000
H      -46.62080000     -33.82690000     -70.26400000
C      -45.15690000     -35.39720000     -70.06580000
C      -45.09580000     -36.48670000     -69.19700000
C      -44.86870000     -35.77370000     -71.47670000
H      -45.43910000     -36.50330000     -68.15010000
C      -44.55960000     -37.17460000     -71.51960000
C      -44.75370000     -35.14160000     -72.77310000
C      -44.61930000     -36.10350000     -73.75970000
S      -44.70920000     -37.96710000     -70.01950000
S      -44.44380000     -37.76810000     -73.22390000
H      -44.49550000     -35.88530000     -74.82160000
