40
Properties=species:S:1:pos:R:3 #=T CELL(abcABC):=T 1.889726e+02=T 90.00000=T Traj:=T positionsangstrom=T Step:=T 0=T Bead:=T pbc="F F F"
C      -45.58240000     -37.13630000     -70.60290000
C      -46.10680000     -35.88090000     -70.95190000
C      -45.63480000     -34.70270000     -70.34980000
C      -44.54800000     -34.75710000     -69.47580000
C      -44.00180000     -36.04940000     -69.17220000
C      -44.56670000     -37.19150000     -69.65780000
H      -45.90070000     -38.06870000     -71.09730000
H      -46.21300000     -33.81620000     -70.64850000
H      -43.17930000     -36.11490000     -68.50660000
H      -44.06180000     -38.15520000     -69.40070000
C      -44.09120000     -33.50250000     -68.81420000
H      -44.03680000     -33.59280000     -67.75390000
H      -44.79450000     -32.61540000     -68.86350000
C      -47.11290000     -35.72920000     -72.05070000
H      -47.91440000     -36.47290000     -72.02070000
H      -47.69520000     -34.79150000     -71.94240000
S      -42.37180000     -33.07780000     -69.35670000
S      -46.51400000     -35.77070000     -73.79420000
C      -42.56550000     -33.21590000     -71.25930000
H      -41.59300000     -33.51560000     -71.56000000
H      -43.19490000     -34.11090000     -71.53290000
C      -45.03480000     -34.66540000     -73.77240000
H      -44.27490000     -35.02800000     -74.40970000
H      -44.52790000     -34.67140000     -72.78110000
C      -45.29960000     -33.13800000     -74.19650000
H      -44.36030000     -32.60600000     -74.32390000
H      -45.74330000     -33.20590000     -75.20680000
C      -42.90940000     -31.86890000     -71.90620000
H      -42.75040000     -31.92950000     -73.03070000
H      -42.12390000     -31.08980000     -71.68340000
C      -44.27470000     -31.34500000     -71.55160000
C      -44.33770000     -30.46500000     -70.50550000
C      -45.57270000     -31.77860000     -72.02250000
H      -43.45370000     -30.09550000     -70.05480000
C      -46.54130000     -31.13340000     -71.29420000
C      -46.11990000     -32.43270000     -73.18610000
C      -47.50540000     -32.39970000     -73.21320000
S      -45.95360000     -30.27590000     -69.88360000
S      -48.15060000     -31.58480000     -71.76640000
H      -48.04310000     -32.90270000     -73.96030000
