40
Properties=species:S:1:pos:R:3 #=T CELL(abcABC):=T 1.889726e+02=T 90.00000=T Traj:=T positionsangstrom=T Step:=T 0=T Bead:=T pbc="F F F"
C      -45.35360000     -37.11550000     -70.82370000
C      -46.02900000     -35.89550000     -70.98480000
C      -45.57330000     -34.80320000     -70.24910000
C      -44.55000000     -34.96740000     -69.26930000
C      -43.81400000     -36.13460000     -69.19730000
C      -44.24500000     -37.19040000     -70.01000000
H      -45.63270000     -37.97440000     -71.41360000
H      -46.07900000     -33.87590000     -70.31960000
H      -42.98770000     -36.24770000     -68.46160000
H      -43.77170000     -38.13020000     -69.83840000
C      -44.11890000     -33.63050000     -68.56390000
H      -43.99530000     -33.76000000     -67.44110000
H      -44.77480000     -32.70950000     -68.71100000
C      -47.18290000     -35.70810000     -71.96210000
H      -47.86710000     -36.60810000     -71.80840000
H      -47.67240000     -34.79650000     -71.62270000
S      -42.38160000     -33.24130000     -69.25860000
S      -46.70120000     -35.70370000     -73.75320000
C      -42.70210000     -33.35340000     -71.05170000
H      -41.74880000     -33.91810000     -71.52990000
H      -43.52320000     -34.09080000     -71.20880000
C      -45.10660000     -34.74760000     -73.82920000
H      -44.47590000     -35.20870000     -74.61120000
H      -44.51790000     -34.89010000     -72.96040000
C      -45.32280000     -33.28530000     -74.08410000
H      -44.32750000     -32.83050000     -73.97650000
H      -45.76240000     -33.18610000     -75.10210000
C      -42.92730000     -32.05690000     -71.79320000
H      -42.91510000     -32.38380000     -72.88920000
H      -42.22610000     -31.24870000     -71.53870000
C      -44.27680000     -31.45840000     -71.45340000
C      -44.30870000     -30.42370000     -70.53340000
C      -45.60370000     -31.77350000     -71.99000000
H      -43.47620000     -29.94080000     -69.96260000
C      -46.57180000     -31.02730000     -71.30520000
C      -46.15750000     -32.61810000     -73.03800000
C      -47.50010000     -32.44200000     -73.13450000
S      -45.93130000     -29.93620000     -70.12780000
S      -48.14940000     -31.30300000     -71.97300000
H      -48.08170000     -32.92460000     -73.92750000
