40
Properties=species:S:1:pos:R:3 #=T CELL(abcABC):=T 1.889726e+02=T 90.00000=T Traj:=T positionsangstrom=T Step:=T 0=T Bead:=T pbc="F F F"
C      -46.37990000     -28.64590000     -72.40620000
C      -46.06460000     -30.01800000     -72.47130000
C      -46.26770000     -30.77450000     -71.28840000
C      -46.68070000     -30.18590000     -70.10290000
C      -46.88350000     -28.77720000     -70.06250000
C      -46.71270000     -28.04560000     -71.22890000
H      -46.49020000     -27.99080000     -73.28500000
H      -46.03910000     -31.79650000     -71.37830000
H      -47.19340000     -28.42900000     -69.00970000
H      -46.99530000     -26.98640000     -71.12960000
C      -47.10730000     -31.10870000     -69.00820000
H      -47.61360000     -31.97620000     -69.49470000
H      -47.91140000     -30.54600000     -68.43980000
C      -45.71280000     -30.61280000     -73.84350000
H      -46.34280000     -31.48610000     -74.16220000
H      -45.90620000     -29.83580000     -74.58070000
S      -45.64450000     -31.76140000     -68.07950000
S      -43.95070000     -31.27210000     -73.93150000
C      -45.48340000     -33.60210000     -68.38250000
H      -44.48580000     -33.74470000     -67.90720000
H      -46.11430000     -34.12890000     -67.67310000
C      -43.85130000     -32.83350000     -73.01580000
H      -43.60790000     -32.78090000     -71.93630000
H      -43.04950000     -33.38170000     -73.54220000
C      -45.09400000     -33.77590000     -73.16420000
H      -46.01020000     -33.35770000     -72.79560000
H      -45.29280000     -33.70200000     -74.22180000
C      -45.58910000     -33.93010000     -69.83870000
H      -44.84730000     -33.33490000     -70.39460000
H      -46.65650000     -33.70060000     -70.13970000
C      -45.29740000     -35.41590000     -70.14240000
C      -45.23170000     -36.41980000     -69.20710000
C      -44.89000000     -35.82140000     -71.47380000
H      -45.62990000     -36.32110000     -68.20630000
C      -44.64980000     -37.15290000     -71.51390000
C      -44.90620000     -35.23850000     -72.80920000
C      -44.54860000     -36.17350000     -73.76880000
S      -44.78960000     -37.98300000     -69.97080000
S      -44.37570000     -37.80270000     -73.09140000
H      -44.48650000     -36.01620000     -74.85680000
