40
Properties=species:S:1:pos:R:3 #=T CELL(abcABC):=T 1.889726e+02=T 90.00000=T Traj:=T positionsangstrom=T Step:=T 0=T Bead:=T pbc="F F F"
C      -44.61440000     -36.26000000     -68.60730000
C      -44.87350000     -34.93000000     -68.36220000
C      -46.16970000     -34.44360000     -68.59570000
C      -47.21850000     -35.23640000     -69.04180000
C      -46.91270000     -36.58230000     -69.40820000
C      -45.61210000     -37.08650000     -69.17550000
H      -43.72190000     -36.76320000     -68.38440000
H      -46.38270000     -33.41180000     -68.37750000
H      -47.60090000     -37.17610000     -69.93290000
H      -45.36200000     -38.10590000     -69.47360000
C      -48.62680000     -34.71740000     -69.29090000
H      -48.53370000     -33.64950000     -68.99860000
H      -49.40230000     -35.27920000     -68.83040000
C      -43.68250000     -34.07250000     -67.97970000
H      -43.83920000     -33.03590000     -68.02220000
H      -43.38200000     -34.32810000     -66.97700000
S      -48.89000000     -34.66620000     -71.08040000
S      -42.25450000     -34.45250000     -68.91300000
C      -47.36610000     -33.85700000     -71.78860000
H      -46.48490000     -34.47660000     -71.65190000
H      -47.50700000     -33.87990000     -72.86140000
C      -42.48090000     -33.52770000     -70.53980000
H      -41.71520000     -34.01660000     -71.15130000
H      -42.16250000     -32.46590000     -70.33580000
C      -43.81610000     -33.50550000     -71.16080000
H      -44.15170000     -34.47490000     -71.48810000
H      -44.50970000     -33.13320000     -70.38660000
C      -47.19260000     -32.40370000     -71.44610000
H      -46.50500000     -32.30190000     -70.56570000
H      -48.06150000     -31.88080000     -71.25930000
C      -46.41130000     -31.75710000     -72.63380000
C      -47.01830000     -30.86870000     -73.44260000
C      -44.95670000     -31.90780000     -72.93860000
H      -48.09570000     -30.59400000     -73.44010000
C      -44.63960000     -31.19950000     -74.08290000
C      -43.82960000     -32.60430000     -72.36600000
C      -42.70910000     -32.39360000     -73.13270000
S      -46.00830000     -30.28500000     -74.79140000
S      -42.98640000     -31.35240000     -74.49970000
H      -41.76700000     -32.77850000     -73.04340000
