40
Properties=species:S:1:pos:R:3 #=T CELL(abcABC):=T 1.889726e+02=T 90.00000=T Traj:=T positionsangstrom=T Step:=T 0=T Bead:=T pbc="F F F"
C      -45.82860000     -28.81650000     -72.34500000
C      -46.29160000     -30.12810000     -72.46320000
C      -46.86090000     -30.76610000     -71.39660000
C      -46.89970000     -30.19800000     -70.14920000
C      -46.52940000     -28.81670000     -70.04110000
C      -46.05050000     -28.14280000     -71.16090000
H      -45.42510000     -28.43170000     -73.31800000
H      -47.13300000     -31.81230000     -71.44950000
H      -46.70720000     -28.20850000     -69.20380000
H      -45.83170000     -27.06130000     -70.99310000
C      -47.16480000     -30.98500000     -68.87270000
H      -47.72170000     -31.83670000     -69.19280000
H      -47.67660000     -30.41080000     -68.15450000
C      -46.04810000     -30.91910000     -73.69600000
H      -46.74290000     -31.70750000     -73.58160000
H      -46.45540000     -30.35790000     -74.55460000
S      -45.53740000     -31.63960000     -68.22610000
S      -44.31650000     -31.28440000     -74.07510000
C      -45.63310000     -33.40560000     -68.54950000
H      -44.86310000     -33.82680000     -67.85670000
H      -46.52440000     -33.88540000     -68.12170000
C      -43.82240000     -32.71980000     -72.94970000
H      -43.95760000     -32.38060000     -71.87840000
H      -42.79780000     -32.92270000     -73.15330000
C      -44.82840000     -33.85560000     -73.18020000
H      -45.77120000     -33.58890000     -72.79630000
H      -45.13440000     -33.90170000     -74.24010000
C      -45.43400000     -33.80170000     -69.98080000
H      -44.57480000     -33.24900000     -70.31550000
H      -46.42340000     -33.54280000     -70.47240000
C      -45.25520000     -35.24030000     -70.28380000
C      -45.36640000     -36.22740000     -69.30170000
C      -44.91220000     -35.85730000     -71.53770000
H      -45.57660000     -36.09060000     -68.24330000
C      -44.66740000     -37.27500000     -71.45980000
C      -44.55140000     -35.30800000     -72.75870000
C      -44.31430000     -36.31100000     -73.72700000
S      -44.98260000     -37.90620000     -69.81190000
S      -44.30420000     -37.90130000     -72.94150000
H      -43.89600000     -36.21190000     -74.72330000
