40
Properties=species:S:1:pos:R:3 #=T CELL(abcABC):=T 1.889726e+02=T 90.00000=T Traj:=T positionsangstrom=T Step:=T 0=T Bead:=T pbc="F F F"
C      -45.70970000     -37.22850000     -71.00240000
C      -46.28780000     -35.91760000     -71.00050000
C      -45.64500000     -34.97640000     -70.15590000
C      -44.42440000     -35.25020000     -69.56300000
C      -43.81090000     -36.48710000     -69.73030000
C      -44.49660000     -37.51710000     -70.39100000
H      -46.35070000     -38.03650000     -71.36600000
H      -46.00250000     -33.96210000     -70.16200000
H      -42.77580000     -36.66510000     -69.34480000
H      -44.13010000     -38.52060000     -70.42240000
C      -43.74310000     -34.13360000     -68.72130000
H      -43.58220000     -34.54680000     -67.69570000
H      -44.52680000     -33.34940000     -68.58980000
C      -47.52290000     -35.62410000     -71.84770000
H      -48.32480000     -36.39210000     -71.80160000
H      -47.88350000     -34.64510000     -71.51010000
S      -42.24470000     -33.47350000     -69.42750000
S      -47.16160000     -35.50720000     -73.73910000
C      -42.67580000     -33.30100000     -71.26430000
H      -41.80500000     -33.77720000     -71.70190000
H      -43.50400000     -33.95050000     -71.54770000
C      -45.42810000     -34.90820000     -73.81770000
H      -44.99940000     -35.41310000     -74.67630000
H      -44.86380000     -35.23690000     -72.95150000
C      -45.28560000     -33.37440000     -73.88400000
H      -44.25070000     -33.09170000     -73.87220000
H      -45.51450000     -32.95410000     -74.91290000
C      -42.79390000     -31.91830000     -71.83760000
H      -42.90330000     -32.09270000     -72.89430000
H      -41.85530000     -31.27060000     -71.58830000
C      -44.04950000     -31.25460000     -71.33500000
C      -44.11930000     -30.50550000     -70.19620000
C      -45.43510000     -31.61790000     -71.84050000
H      -43.29210000     -30.06280000     -69.63100000
C      -46.42200000     -30.86680000     -71.20690000
C      -46.00570000     -32.46960000     -72.89030000
C      -47.43850000     -32.21130000     -73.02020000
S      -45.75400000     -29.84830000     -69.93280000
S      -47.99540000     -30.94430000     -71.81940000
H      -48.12010000     -32.73290000     -73.67750000
