40
Properties=species:S:1:pos:R:3 #=T CELL(abcABC):=T 1.889726e+02=T 90.00000=T Traj:=T positionsangstrom=T Step:=T 0=T Bead:=T pbc="F F F"
C      -46.31960000     -28.60990000     -72.43610000
C      -46.21840000     -29.96030000     -72.50270000
C      -46.32370000     -30.73360000     -71.36470000
C      -46.65630000     -30.17890000     -70.09220000
C      -46.81300000     -28.78560000     -70.05190000
C      -46.58220000     -27.99590000     -71.20760000
H      -46.05470000     -27.97490000     -73.29760000
H      -46.26930000     -31.84280000     -71.33310000
H      -47.01280000     -28.18040000     -69.09770000
H      -46.84600000     -26.92290000     -71.24230000
C      -46.96610000     -31.04640000     -68.86210000
H      -47.65200000     -31.80520000     -69.05080000
H      -47.41890000     -30.44580000     -68.09510000
C      -45.80140000     -30.61900000     -73.80310000
H      -46.39820000     -31.50030000     -74.04590000
H      -45.93230000     -29.93370000     -74.58120000
S      -45.57650000     -31.77310000     -67.85650000
S      -44.07770000     -31.28480000     -73.88840000
C      -45.50190000     -33.53790000     -68.38470000
H      -44.55920000     -33.93280000     -67.97120000
H      -46.26590000     -34.24490000     -67.99660000
C      -43.94390000     -33.02010000     -73.08270000
H      -43.80100000     -32.80280000     -72.07200000
H      -42.93660000     -33.38640000     -73.37880000
C      -45.14930000     -33.89460000     -73.38700000
H      -45.96790000     -33.47200000     -72.74670000
H      -45.43130000     -33.99570000     -74.44900000
C      -45.45750000     -33.84100000     -69.92010000
H      -44.64300000     -33.24080000     -70.33840000
H      -46.35460000     -33.47470000     -70.33510000
C      -45.34960000     -35.32270000     -70.30740000
C      -45.32940000     -36.29690000     -69.34570000
C      -44.98000000     -35.89990000     -71.58230000
H      -45.52470000     -36.09070000     -68.29540000
C      -44.79890000     -37.23950000     -71.59480000
C      -44.86060000     -35.30130000     -72.91730000
C      -44.39800000     -36.27400000     -73.79980000
S      -44.97060000     -37.91240000     -69.92550000
S      -44.14230000     -37.84490000     -73.06030000
H      -44.20950000     -36.09270000     -74.83110000
