40
Properties=species:S:1:pos:R:3 #=T CELL(abcABC):=T 1.889726e+02=T 90.00000=T Traj:=T positionsangstrom=T Step:=T 0=T Bead:=T pbc="F F F"
C      -44.66050000     -36.50730000     -68.93250000
C      -44.90630000     -35.20230000     -68.42860000
C      -46.21110000     -34.71580000     -68.39030000
C      -47.27260000     -35.31930000     -68.99150000
C      -47.05900000     -36.69570000     -69.36120000
C      -45.77640000     -37.23790000     -69.26500000
H      -43.72180000     -36.92210000     -69.13800000
H      -46.25870000     -33.64230000     -68.20090000
H      -47.82540000     -37.28100000     -69.72380000
H      -45.70330000     -38.26650000     -69.59060000
C      -48.59690000     -34.71180000     -69.35100000
H      -48.85950000     -33.76320000     -68.80250000
H      -49.38050000     -35.33780000     -68.98490000
C      -43.76940000     -34.24050000     -67.99750000
H      -44.04860000     -33.08060000     -67.94580000
H      -43.49560000     -34.54090000     -66.96220000
S      -48.90530000     -34.57110000     -71.15270000
S      -42.19020000     -34.52360000     -69.00530000
C      -47.29690000     -33.92080000     -71.80260000
H      -46.44150000     -34.43320000     -71.33520000
H      -47.35320000     -34.17290000     -72.92750000
C      -42.45260000     -33.61070000     -70.56850000
H      -41.95350000     -34.09310000     -71.37260000
H      -41.88580000     -32.66000000     -70.52630000
C      -43.83270000     -33.37270000     -71.06040000
H      -44.36010000     -34.33420000     -71.24170000
H      -44.55400000     -32.94450000     -70.33740000
C      -47.16680000     -32.40310000     -71.52000000
H      -46.68820000     -32.25650000     -70.55070000
H      -48.17110000     -31.92620000     -71.44360000
C      -46.42130000     -31.68410000     -72.67270000
C      -47.02740000     -30.83270000     -73.57460000
C      -44.97930000     -31.82370000     -72.86660000
H      -48.07660000     -30.65140000     -73.63250000
C      -44.56340000     -31.02380000     -73.97000000
C      -43.82540000     -32.48620000     -72.28510000
C      -42.69080000     -32.33770000     -73.04260000
S      -45.91330000     -30.19910000     -74.75270000
S      -42.94670000     -31.13470000     -74.33170000
H      -41.74810000     -32.66390000     -72.75900000
