40
Properties=species:S:1:pos:R:3 #=T CELL(abcABC):=T 1.889726e+02=T 90.00000=T Traj:=T positionsangstrom=T Step:=T 0=T Bead:=T pbc="F F F"
C      -45.75320000     -36.95220000     -70.12850000
C      -46.10870000     -35.56750000     -70.34350000
C      -45.26200000     -34.52890000     -69.86790000
C      -43.99130000     -34.89440000     -69.29680000
C      -43.64320000     -36.22950000     -69.16360000
C      -44.46050000     -37.26020000     -69.65650000
H      -46.34710000     -37.74860000     -70.48300000
H      -45.44650000     -33.46300000     -69.98840000
H      -42.65610000     -36.42120000     -68.79360000
H      -44.23080000     -38.22820000     -69.36130000
C      -43.16420000     -33.71270000     -68.89410000
H      -42.63360000     -33.80700000     -67.88590000
H      -43.80120000     -32.74210000     -68.97840000
C      -47.38110000     -35.36080000     -71.17640000
H      -48.18190000     -35.94960000     -70.75880000
H      -47.88800000     -34.33480000     -71.15420000
S      -41.71420000     -33.35020000     -70.07110000
S      -47.30010000     -35.82700000     -72.91710000
C      -42.62290000     -33.56700000     -71.64270000
H      -41.92160000     -34.13750000     -72.34590000
H      -43.50540000     -34.24490000     -71.54240000
C      -45.71970000     -35.15750000     -73.42180000
H      -45.29850000     -35.82610000     -74.21680000
H      -45.01330000     -35.17510000     -72.58620000
C      -45.80800000     -33.71110000     -74.04710000
H      -44.84820000     -33.42760000     -74.31560000
H      -46.47570000     -33.75890000     -74.85610000
C      -43.09230000     -32.28330000     -72.35540000
H      -43.32240000     -32.47870000     -73.39420000
H      -42.18800000     -31.62920000     -72.44050000
C      -44.26360000     -31.49530000     -71.81520000
C      -44.20270000     -30.59030000     -70.80640000
C      -45.68490000     -31.75840000     -72.13670000
H      -43.28120000     -30.15620000     -70.36150000
C      -46.52860000     -30.85360000     -71.51990000
C      -46.39580000     -32.61660000     -73.10630000
C      -47.70470000     -32.31380000     -73.14130000
S      -45.70730000     -29.84010000     -70.33990000
S      -48.22130000     -31.03300000     -72.07240000
H      -48.53220000     -32.80860000     -73.67360000
