40
Properties=species:S:1:pos:R:3 #=T CELL(abcABC):=T 1.889726e+02=T 90.00000=T Traj:=T positionsangstrom=T Step:=T 0=T Bead:=T pbc="F F F"
C      -45.61540000     -36.86690000     -69.77370000
C      -46.05640000     -35.60670000     -70.16750000
C      -45.23940000     -34.45870000     -69.92520000
C      -43.94310000     -34.59810000     -69.32740000
C      -43.52330000     -35.83960000     -68.96240000
C      -44.33910000     -37.00290000     -69.16150000
H      -46.23850000     -37.73400000     -69.88690000
H      -45.56150000     -33.57280000     -70.43310000
H      -42.44270000     -35.96960000     -68.71910000
H      -43.92010000     -38.00030000     -69.10680000
C      -43.14020000     -33.29030000     -69.19250000
H      -42.69470000     -33.32570000     -68.17550000
H      -43.78190000     -32.42040000     -69.35820000
C      -47.40230000     -35.54120000     -70.78270000
H      -48.13500000     -36.06260000     -70.24500000
H      -47.82920000     -34.51650000     -70.60330000
S      -41.73450000     -33.11310000     -70.49950000
S      -47.52700000     -35.82250000     -72.67500000
C      -42.58940000     -33.50740000     -72.05020000
H      -41.77300000     -33.98900000     -72.66400000
H      -43.29830000     -34.24940000     -71.78150000
C      -45.92030000     -35.19460000     -73.26950000
H      -45.45980000     -35.95680000     -73.90030000
H      -45.16870000     -34.94790000     -72.53130000
C      -46.12300000     -33.91970000     -73.99320000
H      -45.20550000     -33.65430000     -74.56290000
H      -46.97900000     -34.06350000     -74.80500000
C      -43.22680000     -32.37660000     -72.87370000
H      -43.52260000     -32.89830000     -73.73080000
H      -42.38680000     -31.69090000     -73.12460000
C      -44.26130000     -31.58170000     -72.18290000
C      -43.99970000     -30.58240000     -71.28350000
C      -45.65690000     -31.94770000     -72.26310000
H      -43.00300000     -30.17870000     -71.13990000
C      -46.43080000     -31.05520000     -71.46320000
C      -46.54150000     -32.78470000     -73.08200000
C      -47.88520000     -32.52900000     -72.85660000
S      -45.44380000     -29.81800000     -70.58460000
S      -48.18040000     -31.36310000     -71.57750000
H      -48.72380000     -33.01110000     -73.32200000
