40
Properties=species:S:1:pos:R:3 #=T CELL(abcABC):=T 1.889726e+02=T 90.00000=T Traj:=T positionsangstrom=T Step:=T 0=T Bead:=T pbc="F F F"
C      -45.46880000     -37.11830000     -69.45960000
C      -46.06560000     -36.04160000     -70.10200000
C      -45.33730000     -34.85870000     -70.19580000
C      -44.13290000     -34.77510000     -69.55030000
C      -43.56250000     -35.91720000     -68.96520000
C      -44.24860000     -37.10480000     -68.83080000
H      -45.97490000     -38.06360000     -69.52670000
H      -45.71560000     -33.90380000     -70.72860000
H      -42.59310000     -35.86040000     -68.44300000
H      -43.71760000     -37.96110000     -68.39640000
C      -43.34280000     -33.51430000     -69.60310000
H      -43.00120000     -33.38310000     -68.56860000
H      -44.05530000     -32.72420000     -69.78440000
C      -47.47060000     -36.24000000     -70.76290000
H      -47.70940000     -37.27850000     -70.49050000
H      -48.19220000     -35.66760000     -70.27830000
S      -41.90860000     -33.32700000     -70.67370000
S      -47.58830000     -36.04780000     -72.58370000
C      -42.75350000     -33.55140000     -72.26910000
H      -42.20950000     -34.26540000     -72.92040000
H      -43.67450000     -34.06270000     -72.10590000
C      -46.10780000     -35.05480000     -73.27330000
H      -45.73160000     -35.66640000     -74.09170000
H      -45.25820000     -35.00720000     -72.58160000
C      -46.46950000     -33.64360000     -73.81850000
H      -45.60640000     -33.44220000     -74.43640000
H      -47.28430000     -33.77770000     -74.50340000
C      -43.13420000     -32.27260000     -73.04950000
H      -43.37390000     -32.57770000     -74.08720000
H      -42.30720000     -31.67850000     -73.28190000
C      -44.20150000     -31.52080000     -72.32960000
C      -43.80170000     -30.36680000     -71.68490000
C      -45.67400000     -31.73500000     -72.28740000
H      -42.74210000     -30.06370000     -71.68350000
C      -46.22000000     -30.73770000     -71.45030000
C      -46.71010000     -32.63000000     -72.74980000
C      -47.98860000     -32.32410000     -72.31010000
S      -45.09250000     -29.53000000     -70.86510000
S      -47.93610000     -30.88240000     -71.16990000
H      -48.94740000     -32.72290000     -72.61490000
