40
Properties=species:S:1:pos:R:3 #=T CELL(abcABC):=T 1.889726e+02=T 90.00000=T Traj:=T positionsangstrom=T Step:=T 0=T Bead:=T pbc="F F F"
C      -45.28230000     -36.92520000     -70.19790000
C      -45.78260000     -35.61480000     -70.15800000
C      -44.92750000     -34.54900000     -69.95230000
C      -43.53010000     -34.74440000     -69.97040000
C      -43.07740000     -36.06570000     -70.10010000
C      -43.87660000     -37.17250000     -70.19150000
H      -45.95650000     -37.77380000     -70.23230000
H      -45.27970000     -33.47050000     -69.83310000
H      -41.95060000     -36.15430000     -70.16570000
H      -43.52430000     -38.18030000     -70.49350000
C      -42.64410000     -33.54200000     -69.76540000
H      -41.99960000     -33.58720000     -68.88550000
H      -43.35170000     -32.78880000     -69.67200000
C      -47.24170000     -35.35710000     -70.25250000
H      -47.74420000     -35.97570000     -69.52530000
H      -47.40780000     -34.36090000     -70.01150000
S      -41.67030000     -33.30970000     -71.32260000
S      -47.85040000     -35.65380000     -71.94430000
C      -42.98440000     -33.65490000     -72.68550000
H      -42.50170000     -34.25500000     -73.42380000
H      -43.66760000     -34.40610000     -72.17660000
C      -46.56430000     -35.05650000     -73.06760000
H      -46.40090000     -35.79360000     -73.84820000
H      -45.58390000     -34.99250000     -72.47120000
C      -46.87400000     -33.66650000     -73.74990000
H      -46.22820000     -33.43760000     -74.54340000
H      -47.92020000     -33.81140000     -74.27380000
C      -43.60940000     -32.35990000     -73.23690000
H      -44.23440000     -32.67870000     -74.08740000
H      -42.94260000     -31.64250000     -73.65100000
C      -44.39170000     -31.61790000     -72.20900000
C      -43.91880000     -30.68070000     -71.30330000
C      -45.85700000     -31.74990000     -72.15740000
H      -42.90390000     -30.32230000     -71.37890000
C      -46.40360000     -31.01290000     -71.13710000
C      -46.89200000     -32.54940000     -72.74750000
C      -48.16310000     -32.21610000     -72.24960000
S      -45.17740000     -30.01870000     -70.22090000
S      -48.06060000     -31.18620000     -70.80790000
H      -49.06200000     -32.73780000     -72.48520000
