40
Properties=species:S:1:pos:R:3 #=T CELL(abcABC):=T 1.889726e+02=T 90.00000=T Traj:=T positionsangstrom=T Step:=T 0=T Bead:=T pbc="F F F"
C      -48.64340000     -33.93820000     -70.19460000
C      -48.08060000     -32.76930000     -69.59930000
C      -47.04150000     -32.96840000     -68.66720000
C      -46.64840000     -34.25120000     -68.26440000
C      -47.22310000     -35.37450000     -68.85180000
C      -48.18100000     -35.20390000     -69.86750000
H      -49.37500000     -33.81340000     -71.04870000
H      -46.68830000     -32.09130000     -68.14820000
H      -47.02640000     -36.42490000     -68.74500000
H      -48.64780000     -36.06170000     -70.23440000
C      -45.61200000     -34.44570000     -67.20230000
H      -45.60480000     -35.35700000     -66.71390000
H      -45.69710000     -33.75670000     -66.35390000
C      -48.58290000     -31.43800000     -70.00210000
H      -49.49410000     -31.44630000     -70.69720000
H      -49.13900000     -30.98410000     -69.10660000
S      -43.91920000     -33.96900000     -67.90240000
S      -47.50060000     -30.20160000     -70.71660000
C      -43.74620000     -34.55660000     -69.72020000
H      -43.46980000     -35.64440000     -69.68870000
H      -44.80830000     -34.53030000     -69.98450000
C      -46.94960000     -31.01000000     -72.23740000
H      -46.69570000     -30.23100000     -72.93200000
H      -47.71810000     -31.66840000     -72.64950000
C      -45.72820000     -31.91290000     -71.91480000
H      -44.99760000     -31.31770000     -71.47180000
H      -46.09090000     -32.58030000     -71.13770000
C      -42.98700000     -33.51980000     -70.50800000
H      -41.96770000     -33.59590000     -70.13860000
H      -43.41710000     -32.51500000     -70.39050000
C      -42.98880000     -33.92870000     -71.95510000
C      -41.85030000     -34.55450000     -72.54830000
C      -43.91040000     -33.53400000     -73.01940000
H      -40.99660000     -34.92010000     -71.90610000
C      -43.61580000     -34.13240000     -74.24140000
C      -45.10600000     -32.70380000     -73.10010000
C      -45.67580000     -32.74290000     -74.37120000
S      -42.06080000     -34.94820000     -74.24490000
S      -44.70610000     -33.66880000     -75.54600000
H      -46.54900000     -32.24650000     -74.58670000
