40
Properties=species:S:1:pos:R:3 #=T CELL(abcABC):=T 1.889726e+02=T 90.00000=T Traj:=T positionsangstrom=T Step:=T 0=T Bead:=T pbc="F F F"
C      -45.22770000     -36.87060000     -70.31030000
C      -45.78720000     -35.61560000     -70.22070000
C      -45.00920000     -34.51190000     -70.01090000
C      -43.60840000     -34.66610000     -69.73670000
C      -43.12690000     -35.92890000     -69.64450000
C      -43.86490000     -37.03670000     -70.06450000
H      -45.85720000     -37.77160000     -70.31680000
H      -45.41190000     -33.53590000     -70.17230000
H      -42.04440000     -36.02660000     -69.57640000
H      -43.47440000     -38.04650000     -70.12070000
C      -42.71380000     -33.45260000     -69.68920000
H      -41.95540000     -33.50750000     -68.83850000
H      -43.35280000     -32.53040000     -69.50300000
C      -47.28050000     -35.49650000     -70.38050000
H      -47.86700000     -36.25300000     -69.83210000
H      -47.57430000     -34.49860000     -69.94810000
S      -41.62570000     -33.15060000     -71.17850000
S      -48.10460000     -35.52440000     -72.08610000
C      -42.70010000     -33.64240000     -72.75060000
H      -42.07710000     -34.08470000     -73.54290000
H      -43.41340000     -34.50310000     -72.46680000
C      -46.71660000     -35.09830000     -73.23600000
H      -46.68830000     -35.90430000     -74.01520000
H      -45.83050000     -35.32700000     -72.65680000
C      -46.66830000     -33.62040000     -73.73210000
H      -45.70910000     -33.46530000     -74.15580000
H      -47.41620000     -33.41570000     -74.55630000
C      -43.48250000     -32.45680000     -73.34910000
H      -44.00360000     -32.73300000     -74.26370000
H      -42.64730000     -31.77520000     -73.70580000
C      -44.40780000     -31.76310000     -72.33520000
C      -43.90140000     -30.80640000     -71.49640000
C      -45.88490000     -31.96010000     -72.03150000
H      -42.94110000     -30.36170000     -71.53810000
C      -46.36740000     -31.11880000     -71.00750000
C      -46.94360000     -32.66230000     -72.63830000
C      -48.17960000     -32.42260000     -71.99000000
S      -45.07420000     -30.10760000     -70.36460000
S      -48.04840000     -31.16000000     -70.84480000
H      -49.17970000     -32.72120000     -72.32800000
