40
Properties=species:S:1:pos:R:3 #=T CELL(abcABC):=T 1.889726e+02=T 90.00000=T Traj:=T positionsangstrom=T Step:=T 0=T Bead:=T pbc="F F F"
C      -45.14340000     -37.00090000     -69.85960000
C      -45.56710000     -35.69190000     -70.00280000
C      -44.56170000     -34.74560000     -70.11220000
C      -43.17620000     -35.04130000     -70.15240000
C      -42.79030000     -36.37700000     -70.02290000
C      -43.78190000     -37.36970000     -69.89610000
H      -45.95130000     -37.68080000     -69.90120000
H      -44.90490000     -33.74660000     -70.15710000
H      -41.77840000     -36.56690000     -69.80120000
H      -43.44520000     -38.39130000     -69.91110000
C      -42.16940000     -33.91130000     -70.23480000
H      -41.37290000     -34.26490000     -69.58910000
H      -42.61290000     -33.03480000     -69.79500000
C      -47.11220000     -35.33600000     -70.13740000
H      -47.76950000     -35.95990000     -69.46620000
H      -47.22960000     -34.26700000     -69.77000000
S      -41.55860000     -33.55960000     -71.94110000
S      -47.81100000     -35.56670000     -71.82840000
C      -43.03000000     -33.50040000     -73.08490000
H      -42.75730000     -33.70940000     -74.11650000
H      -43.75200000     -34.27120000     -72.82650000
C      -46.73280000     -34.96630000     -73.20150000
H      -46.96230000     -35.69100000     -73.93950000
H      -45.74560000     -35.03810000     -72.89490000
C      -46.96370000     -33.49520000     -73.68980000
H      -46.08380000     -33.22100000     -74.24670000
H      -47.80940000     -33.57090000     -74.37790000
C      -43.73790000     -32.10690000     -73.15940000
H      -44.28250000     -32.14830000     -74.09680000
H      -42.96520000     -31.30480000     -73.40450000
C      -44.66530000     -31.54540000     -72.06570000
C      -44.07490000     -30.72920000     -71.11910000
C      -46.06730000     -31.63300000     -71.96130000
H      -43.13650000     -30.21770000     -70.99210000
C      -46.52620000     -30.88220000     -70.87810000
C      -47.16190000     -32.52250000     -72.55480000
C      -48.36960000     -32.22420000     -71.98360000
S      -45.28900000     -29.97380000     -70.15210000
S      -48.26820000     -30.88660000     -70.74120000
H      -49.38130000     -32.58420000     -72.29200000
