40
Properties=species:S:1:pos:R:3 #=T CELL(abcABC):=T 1.889726e+02=T 90.00000=T Traj:=T positionsangstrom=T Step:=T 0=T Bead:=T pbc="F F F"
C      -45.27130000     -36.90560000     -70.06690000
C      -45.88380000     -35.64860000     -70.23860000
C      -45.09480000     -34.50220000     -70.13060000
C      -43.74440000     -34.56480000     -69.84490000
C      -43.17310000     -35.84410000     -69.80380000
C      -43.88370000     -37.07140000     -69.97520000
H      -45.78440000     -37.78050000     -70.47250000
H      -45.58990000     -33.54740000     -70.10710000
H      -42.19630000     -36.01390000     -69.48680000
H      -43.45750000     -38.04620000     -69.97490000
C      -42.89570000     -33.31410000     -69.69900000
H      -42.28780000     -33.39380000     -68.84950000
H      -43.42930000     -32.37560000     -69.58470000
C      -47.35080000     -35.43780000     -70.42360000
H      -47.79030000     -36.20400000     -69.81570000
H      -47.59940000     -34.38300000     -70.13410000
S      -41.62560000     -33.16440000     -71.14020000
S      -48.12040000     -35.78770000     -72.09530000
C      -42.65360000     -33.55530000     -72.61550000
H      -41.96060000     -33.92810000     -73.40520000
H      -43.27730000     -34.29100000     -72.23600000
C      -46.78250000     -35.20910000     -73.26470000
H      -46.79220000     -35.71320000     -74.25660000
H      -45.81800000     -35.25000000     -72.82960000
C      -46.85900000     -33.77120000     -73.78060000
H      -46.09390000     -33.62150000     -74.58400000
H      -47.86210000     -33.69530000     -74.19410000
C      -43.43780000     -32.41390000     -73.29740000
H      -44.10020000     -32.82490000     -73.96730000
H      -42.73950000     -31.72600000     -73.82930000
C      -44.31900000     -31.63980000     -72.26850000
C      -43.82670000     -30.72820000     -71.38420000
C      -45.74640000     -31.91390000     -72.09400000
H      -42.78700000     -30.37810000     -71.38530000
C      -46.25250000     -30.98590000     -71.14700000
C      -46.83620000     -32.69040000     -72.72890000
C      -48.04790000     -32.40810000     -72.12280000
S      -45.04890000     -29.97350000     -70.33670000
S      -47.95100000     -31.22920000     -70.80350000
H      -49.03650000     -32.80380000     -72.43010000
