40
Properties=species:S:1:pos:R:3 #=T CELL(abcABC):=T 1.889726e+02=T 90.00000=T Traj:=T positionsangstrom=T Step:=T 0=T Bead:=T pbc="F F F"
C      -48.28120000     -35.79450000     -69.02550000
C      -46.92540000     -35.39480000     -69.05550000
C      -46.11210000     -35.80480000     -70.06330000
C      -46.63490000     -36.56890000     -71.18890000
C      -48.04540000     -36.93430000     -71.15530000
C      -48.81090000     -36.55690000     -70.06210000
H      -48.96050000     -35.36350000     -68.17160000
H      -45.05860000     -35.49380000     -70.00740000
H      -48.27700000     -37.64840000     -71.95230000
H      -49.86980000     -36.87080000     -69.91750000
C      -45.80780000     -37.09860000     -72.33450000
H      -46.00920000     -38.18260000     -72.39150000
H      -44.69370000     -37.09450000     -72.16300000
C      -46.19630000     -34.88440000     -67.83310000
H      -46.63220000     -35.44110000     -66.96460000
H      -45.14840000     -35.01200000     -67.84920000
S      -46.16890000     -36.33500000     -73.95140000
S      -46.52430000     -33.06850000     -67.51230000
C      -45.11430000     -34.82150000     -73.98660000
H      -43.99740000     -34.97420000     -73.83790000
H      -45.31760000     -34.33150000     -75.00340000
C      -45.11850000     -32.24840000     -68.38820000
H      -44.16120000     -32.61480000     -68.02510000
H      -45.22660000     -31.21240000     -68.09900000
C      -45.35900000     -32.19580000     -69.94090000
H      -45.59170000     -33.12030000     -70.46760000
H      -46.39470000     -31.64700000     -70.00880000
C      -45.48250000     -33.70590000     -72.94620000
H      -45.22550000     -33.85540000     -71.89140000
H      -46.49980000     -33.50570000     -73.08640000
C      -44.58240000     -32.42820000     -73.20450000
C      -44.11450000     -32.03290000     -74.42820000
C      -44.14070000     -31.52320000     -72.07450000
H      -44.06990000     -32.63100000     -75.33290000
C      -43.25260000     -30.55340000     -72.51520000
C      -44.38150000     -31.38100000     -70.71920000
C      -43.63180000     -30.40120000     -70.10990000
S      -43.08150000     -30.56950000     -74.34960000
S      -42.73610000     -29.43990000     -71.29850000
H      -43.84720000     -30.03160000     -69.09340000
