40
Properties=species:S:1:pos:R:3 #=T CELL(abcABC):=T 1.889726e+02=T 90.00000=T Traj:=T positionsangstrom=T Step:=T 0=T Bead:=T pbc="F F F"
C      -45.18480000     -36.92110000     -69.98340000
C      -45.53680000     -35.57930000     -70.14830000
C      -44.50220000     -34.68200000     -70.32120000
C      -43.11450000     -34.95660000     -70.12990000
C      -42.82010000     -36.25740000     -69.64840000
C      -43.82030000     -37.24980000     -69.66570000
H      -45.95550000     -37.64630000     -70.03110000
H      -44.78990000     -33.70470000     -70.71350000
H      -41.80390000     -36.63510000     -69.52100000
H      -43.58510000     -38.26660000     -69.43200000
C      -42.10080000     -33.94600000     -70.33880000
H      -41.19320000     -34.15800000     -69.68870000
H      -42.53500000     -33.00270000     -70.01480000
C      -46.97990000     -35.00580000     -70.21600000
H      -47.59660000     -35.33850000     -69.35090000
H      -47.01430000     -33.95860000     -70.21370000
S      -41.61660000     -33.64940000     -72.08860000
S      -47.89240000     -35.51400000     -71.81550000
C      -43.21700000     -33.65140000     -72.98430000
H      -43.00180000     -33.92950000     -73.95810000
H      -43.97830000     -34.33320000     -72.49560000
C      -46.59270000     -34.97510000     -72.93170000
H      -46.35710000     -35.70420000     -73.74090000
H      -45.65150000     -34.98440000     -72.29670000
C      -46.97110000     -33.62600000     -73.63050000
H      -46.31280000     -33.35800000     -74.40970000
H      -47.98330000     -33.69010000     -74.24260000
C      -43.78790000     -32.19110000     -73.20230000
H      -44.40520000     -32.32450000     -74.10110000
H      -43.01270000     -31.50890000     -73.39090000
C      -44.61910000     -31.49050000     -72.16800000
C      -44.03890000     -30.62490000     -71.29520000
C      -46.02350000     -31.69970000     -71.99120000
H      -42.99580000     -30.27740000     -71.25400000
C      -46.51230000     -30.93330000     -70.89100000
C      -47.12340000     -32.49210000     -72.61700000
C      -48.31720000     -32.23720000     -71.93800000
S      -45.28020000     -29.92780000     -70.16040000
S      -48.29120000     -31.10890000     -70.62390000
H      -49.27900000     -32.72770000     -72.09850000
