40
Properties=species:S:1:pos:R:3 #=T CELL(abcABC):=T 1.889726e+02=T 90.00000=T Traj:=T positionsangstrom=T Step:=T 0=T Bead:=T pbc="F F F"
C      -44.95860000     -36.70470000     -69.49380000
C      -45.56100000     -35.50500000     -69.98400000
C      -44.72300000     -34.37670000     -70.25190000
C      -43.34440000     -34.52610000     -70.13360000
C      -42.84390000     -35.68900000     -69.63420000
C      -43.61100000     -36.79480000     -69.19240000
H      -45.48930000     -37.61190000     -69.32710000
H      -45.26220000     -33.50110000     -70.61750000
H      -41.75680000     -35.72700000     -69.63400000
H      -43.16910000     -37.61020000     -68.66070000
C      -42.38500000     -33.38190000     -70.40910000
H      -41.54990000     -33.61950000     -69.75590000
H      -42.93550000     -32.48870000     -70.18160000
C      -47.07530000     -35.41510000     -70.14530000
H      -47.55240000     -36.01070000     -69.32370000
H      -47.44220000     -34.41490000     -69.94690000
S      -41.78170000     -33.35850000     -72.20270000
S      -47.76610000     -36.01220000     -71.75740000
C      -43.31690000     -33.55960000     -73.28090000
H      -42.93730000     -34.06500000     -74.09550000
H      -43.95670000     -34.16450000     -72.66870000
C      -46.79580000     -35.10940000     -73.06340000
H      -46.71270000     -35.81950000     -73.94640000
H      -45.70830000     -35.02710000     -72.74950000
C      -47.30850000     -33.71460000     -73.46870000
H      -46.85180000     -33.37040000     -74.38080000
H      -48.41790000     -33.83620000     -73.59360000
C      -44.01790000     -32.26200000     -73.74240000
H      -44.59990000     -32.60590000     -74.61160000
H      -43.28490000     -31.54490000     -74.13760000
C      -44.82750000     -31.51180000     -72.60690000
C      -44.10860000     -30.63030000     -71.84380000
C      -46.11270000     -31.76870000     -72.09490000
H      -43.06230000     -30.26160000     -72.05720000
C      -46.31860000     -31.03430000     -70.91540000
C      -47.22320000     -32.63190000     -72.41100000
C      -48.29820000     -32.45420000     -71.55020000
S      -44.97600000     -30.03650000     -70.44730000
S      -47.89600000     -31.35840000     -70.22970000
H      -49.09960000     -33.15020000     -71.45450000
