40
Properties=species:S:1:pos:R:3 #=T CELL(abcABC):=T 1.889726e+02=T 90.00000=T Traj:=T positionsangstrom=T Step:=T 0=T Bead:=T pbc="F F F"
C      -48.72910000     -33.90130000     -70.20760000
C      -48.15200000     -32.77100000     -69.53010000
C      -47.12120000     -33.01880000     -68.60470000
C      -46.63640000     -34.31470000     -68.31830000
C      -47.27540000     -35.39930000     -68.96200000
C      -48.26890000     -35.17130000     -69.87650000
H      -49.58570000     -33.79560000     -70.92100000
H      -46.54710000     -32.12790000     -68.29510000
H      -46.97040000     -36.38800000     -68.78150000
H      -48.63860000     -36.04630000     -70.47840000
C      -45.47600000     -34.53060000     -67.35940000
H      -45.40860000     -35.62820000     -67.24950000
H      -45.67050000     -33.96850000     -66.40790000
C      -48.72840000     -31.41360000     -69.85110000
H      -49.55620000     -31.53470000     -70.53020000
H      -48.98300000     -30.84920000     -69.03910000
S      -43.85580000     -33.93870000     -67.98750000
S      -47.56170000     -30.28760000     -70.75800000
C      -43.94400000     -34.36470000     -69.73690000
H      -43.58450000     -35.33960000     -69.99160000
H      -45.00880000     -34.35190000     -70.01130000
C      -46.95890000     -31.33670000     -72.17340000
H      -47.00270000     -30.69260000     -73.08040000
H      -47.70820000     -32.11830000     -72.34900000
C      -45.55100000     -31.81670000     -71.89520000
H      -44.77910000     -31.01260000     -71.61950000
H      -45.55100000     -32.51330000     -70.97580000
C      -43.01660000     -33.42890000     -70.57500000
H      -42.05260000     -33.52900000     -70.10170000
H      -43.30220000     -32.38300000     -70.44110000
C      -42.91760000     -33.80910000     -71.98640000
C      -41.84590000     -34.62850000     -72.49680000
C      -43.81590000     -33.45890000     -72.98630000
H      -40.99410000     -35.10780000     -71.91690000
C      -43.47390000     -33.97260000     -74.27220000
C      -45.02750000     -32.65580000     -73.10600000
C      -45.72590000     -32.81630000     -74.30720000
S      -42.00100000     -34.92010000     -74.18800000
S      -44.74280000     -33.68440000     -75.46260000
H      -46.73590000     -32.51700000     -74.41950000
