40
Properties=species:S:1:pos:R:3 #=T CELL(abcABC):=T 1.889726e+02=T 90.00000=T Traj:=T positionsangstrom=T Step:=T 0=T Bead:=T pbc="F F F"
C      -44.42540000     -37.06330000     -71.59820000
C      -43.30530000     -36.21470000     -71.48700000
C      -43.13500000     -35.54180000     -70.24780000
C      -44.11090000     -35.60410000     -69.29180000
C      -45.22550000     -36.46850000     -69.38440000
C      -45.39790000     -37.16540000     -70.57700000
H      -44.54520000     -37.67030000     -72.51370000
H      -42.34380000     -34.84890000     -69.99960000
H      -45.98150000     -36.40020000     -68.65510000
H      -46.20570000     -37.85520000     -70.74560000
C      -43.88010000     -34.95460000     -67.92930000
H      -42.99100000     -35.37130000     -67.43300000
H      -44.62460000     -35.21170000     -67.24890000
C      -42.34130000     -35.94550000     -72.58870000
H      -41.37110000     -36.21790000     -72.17780000
H      -42.59170000     -36.40040000     -73.56730000
S      -43.69930000     -33.16430000     -67.93500000
S      -42.21170000     -34.06080000     -72.82630000
C      -45.31390000     -32.54940000     -68.55240000
H      -46.08060000     -33.08180000     -68.00440000
H      -45.33020000     -31.55350000     -68.24970000
C      -43.92210000     -33.78240000     -73.14480000
H      -44.60290000     -34.18090000     -72.36360000
H      -44.37290000     -34.18170000     -74.06050000
C      -44.24950000     -32.21460000     -73.16450000
H      -43.84280000     -31.64090000     -72.25060000
H      -43.72710000     -31.77300000     -74.04670000
C      -45.40280000     -32.60480000     -70.10070000
H      -45.28800000     -33.58810000     -70.37810000
H      -44.50920000     -32.04830000     -70.49800000
C      -46.65200000     -32.04250000     -70.76140000
C      -47.83010000     -31.90330000     -70.14000000
C      -46.61940000     -31.63780000     -72.16750000
H      -48.13440000     -32.16620000     -69.15790000
C      -47.90740000     -31.23800000     -72.50320000
C      -45.70130000     -31.85230000     -73.27620000
C      -46.32100000     -31.55020000     -74.46350000
S      -49.06040000     -31.20880000     -71.16560000
S      -48.08420000     -31.08190000     -74.22410000
H      -46.00080000     -31.51760000     -75.51510000
