40
Properties=species:S:1:pos:R:3 #=T CELL(abcABC):=T 1.889726e+02=T 90.00000=T Traj:=T positionsangstrom=T Step:=T 0=T Bead:=T pbc="F F F"
C      -44.85410000     -37.03870000     -70.18550000
C      -45.36670000     -35.84050000     -69.71850000
C      -44.65570000     -34.62680000     -69.92920000
C      -43.33900000     -34.74900000     -70.40000000
C      -42.77180000     -35.97530000     -70.75180000
C      -43.51170000     -37.12630000     -70.57890000
H      -45.43260000     -37.96250000     -70.05830000
H      -45.00810000     -33.64360000     -69.64080000
H      -41.70410000     -36.14550000     -71.05390000
H      -43.03190000     -37.98120000     -71.01800000
C      -42.49200000     -33.46470000     -70.49210000
H      -41.61420000     -33.53350000     -69.89660000
H      -42.99970000     -32.57280000     -70.16860000
C      -46.83060000     -35.75890000     -69.23050000
H      -47.13890000     -36.46620000     -68.44330000
H      -46.99920000     -34.75550000     -68.85070000
S      -41.94580000     -33.35290000     -72.30160000
S      -47.86350000     -36.01660000     -70.73150000
C      -43.52940000     -33.87600000     -73.21230000
H      -43.09080000     -34.54270000     -74.05440000
H      -44.10170000     -34.51260000     -72.48540000
C      -46.98190000     -35.19140000     -72.04570000
H      -46.98670000     -35.96410000     -72.81820000
H      -45.88240000     -35.21110000     -71.97310000
C      -47.53870000     -33.95860000     -72.68430000
H      -47.10760000     -33.95070000     -73.63890000
H      -48.62200000     -34.06530000     -72.88320000
C      -44.40960000     -32.68250000     -73.83690000
H      -45.15170000     -33.16540000     -74.48260000
H      -43.75480000     -32.20160000     -74.53770000
C      -44.80600000     -31.72600000     -72.78000000
C      -44.18610000     -30.54480000     -72.56860000
C      -46.00760000     -31.87400000     -71.97280000
H      -43.37670000     -30.10390000     -73.12200000
C      -46.15720000     -30.77590000     -71.11050000
C      -47.24030000     -32.70720000     -71.92420000
C      -48.13690000     -32.14150000     -71.01390000
S      -44.92490000     -29.47470000     -71.34020000
S      -47.64840000     -30.66130000     -70.21980000
H      -49.14790000     -32.53340000     -70.87240000
