40
Properties=species:S:1:pos:R:3 #=T CELL(abcABC):=T 1.889726e+02=T 90.00000=T Traj:=T positionsangstrom=T Step:=T 0=T Bead:=T pbc="F F F"
C      -44.55950000     -36.82890000     -71.57490000
C      -43.34110000     -36.15090000     -71.30070000
C      -43.13990000     -35.64320000     -70.03730000
C      -44.14520000     -35.64050000     -69.06540000
C      -45.31330000     -36.41110000     -69.30070000
C      -45.52310000     -37.01030000     -70.56820000
H      -44.80540000     -37.14770000     -72.58350000
H      -42.19830000     -35.09420000     -69.82560000
H      -45.89410000     -36.59330000     -68.39920000
H      -46.38970000     -37.59690000     -70.90330000
C      -43.96250000     -34.92060000     -67.76110000
H      -43.11480000     -35.45100000     -67.16040000
H      -44.89450000     -35.03270000     -67.15130000
C      -42.33410000     -35.88700000     -72.41340000
H      -41.30920000     -36.26520000     -72.14230000
H      -42.64910000     -36.43590000     -73.33650000
S      -43.67410000     -33.08670000     -67.87480000
S      -42.15570000     -34.08530000     -72.87500000
C      -45.34360000     -32.59390000     -68.54930000
H      -46.12880000     -33.28930000     -68.15610000
H      -45.61170000     -31.56680000     -68.17220000
C      -43.96380000     -33.73710000     -73.11800000
H      -44.36780000     -34.10520000     -72.17790000
H      -44.26230000     -34.32900000     -73.93150000
C      -44.17280000     -32.21220000     -73.38160000
H      -43.72810000     -31.66320000     -72.58310000
H      -43.83920000     -31.82120000     -74.33320000
C      -45.30040000     -32.69020000     -70.06630000
H      -45.30280000     -33.72110000     -70.40910000
H      -44.39930000     -32.18190000     -70.53890000
C      -46.52540000     -32.02970000     -70.77540000
C      -47.68130000     -31.64280000     -70.13440000
C      -46.59890000     -31.83600000     -72.27060000
H      -47.89260000     -31.67100000     -69.07700000
C      -47.91650000     -31.45250000     -72.57990000
C      -45.70840000     -31.95380000     -73.47730000
C      -46.37340000     -31.55720000     -74.64740000
S      -49.00970000     -31.16880000     -71.24930000
S      -48.14170000     -31.23030000     -74.29340000
H      -46.18790000     -31.59590000     -75.72910000
