40
Properties=species:S:1:pos:R:3 #=T CELL(abcABC):=T 1.889726e+02=T 90.00000=T Traj:=T positionsangstrom=T Step:=T 0=T Bead:=T pbc="F F F"
C      -44.61440000     -36.86730000     -70.76660000
C      -43.38090000     -36.19120000     -70.68960000
C      -43.19110000     -35.28620000     -69.66790000
C      -44.21640000     -34.98010000     -68.75540000
C      -45.51780000     -35.53790000     -68.96820000
C      -45.71950000     -36.44780000     -69.98790000
H      -44.69960000     -37.57940000     -71.55690000
H      -42.22930000     -34.86310000     -69.59330000
H      -46.38860000     -35.26880000     -68.31930000
H      -46.73170000     -36.80980000     -70.07180000
C      -43.98580000     -34.09000000     -67.51790000
H      -43.13940000     -34.32030000     -66.97070000
H      -44.87980000     -34.07510000     -66.88440000
C      -42.29820000     -36.27030000     -71.83700000
H      -41.27070000     -36.32070000     -71.41410000
H      -42.38700000     -37.11760000     -72.61050000
S      -43.62260000     -32.34630000     -67.99360000
S      -42.28760000     -34.64510000     -72.73380000
C      -45.16950000     -31.81080000     -68.88310000
H      -46.04440000     -32.04280000     -68.34430000
H      -45.03220000     -30.72530000     -68.91920000
C      -44.05810000     -34.14820000     -73.16760000
H      -44.66200000     -34.53710000     -72.37230000
H      -44.29470000     -34.66270000     -74.18260000
C      -44.15400000     -32.59160000     -73.30800000
H      -43.69290000     -32.03940000     -72.45350000
H      -43.66040000     -32.28790000     -74.19930000
C      -45.23430000     -32.25860000     -70.31270000
H      -44.88900000     -33.31470000     -70.56440000
H      -44.55480000     -31.61220000     -70.85930000
C      -46.57130000     -32.07570000     -71.02560000
C      -47.84990000     -32.03700000     -70.48570000
C      -46.57520000     -31.98280000     -72.44700000
H      -48.09210000     -32.13950000     -69.40680000
C      -47.85750000     -31.79090000     -72.96150000
C      -45.59640000     -32.16200000     -73.52180000
C      -46.14380000     -31.92140000     -74.77150000
S      -49.10250000     -31.68170000     -71.65120000
S      -47.89900000     -31.66440000     -74.71270000
H      -45.78320000     -32.29420000     -75.67550000
