40
Properties=species:S:1:pos:R:3 #=T CELL(abcABC):=T 1.889726e+02=T 90.00000=T Traj:=T positionsangstrom=T Step:=T 0=T Bead:=T pbc="F F F"
C      -44.77120000     -36.45170000     -70.97670000
C      -43.51140000     -35.82820000     -70.83780000
C      -43.30200000     -35.10410000     -69.66290000
C      -44.17980000     -35.21300000     -68.58430000
C      -45.42180000     -35.92910000     -68.68850000
C      -45.68500000     -36.46150000     -69.94240000
H      -45.06780000     -36.95450000     -71.91440000
H      -42.28330000     -34.67920000     -69.55330000
H      -46.19720000     -35.87290000     -67.89320000
H      -46.60100000     -36.99940000     -70.03400000
C      -43.93880000     -34.41850000     -67.38280000
H      -43.02130000     -34.83410000     -66.87290000
H      -44.83010000     -34.47870000     -66.80590000
C      -42.51250000     -36.06740000     -71.94200000
H      -41.54360000     -36.31950000     -71.51580000
H      -42.94620000     -36.92810000     -72.52930000
S      -43.69510000     -32.66910000     -67.82790000
S      -42.23390000     -34.50030000     -72.90140000
C      -45.14450000     -32.14820000     -68.84010000
H      -46.05020000     -32.65700000     -68.38430000
H      -45.24710000     -31.15930000     -68.61740000
C      -44.03670000     -34.02350000     -73.23030000
H      -44.78920000     -34.29070000     -72.40500000
H      -44.32670000     -34.64730000     -74.09250000
C      -44.21940000     -32.56410000     -73.58750000
H      -43.71650000     -31.96570000     -72.82870000
H      -43.79370000     -32.35380000     -74.58180000
C      -45.08570000     -32.27770000     -70.34870000
H      -44.77160000     -33.33210000     -70.58090000
H      -44.29010000     -31.63190000     -70.70160000
C      -46.40760000     -32.08570000     -71.08160000
C      -47.61950000     -31.82090000     -70.47440000
C      -46.56340000     -32.11220000     -72.50440000
H      -47.63570000     -31.69650000     -69.44490000
C      -47.82450000     -31.70540000     -72.89990000
C      -45.67220000     -32.16210000     -73.67050000
C      -46.34370000     -32.15620000     -74.85770000
S      -48.91580000     -31.43470000     -71.55390000
S      -48.01040000     -31.67760000     -74.63830000
H      -45.86110000     -32.02980000     -75.83240000
