40
Properties=species:S:1:pos:R:3 #=T CELL(abcABC):=T 1.889726e+02=T 90.00000=T Traj:=T positionsangstrom=T Step:=T 0=T Bead:=T pbc="F F F"
C      -44.62570000     -36.99160000     -70.02460000
C      -44.75100000     -35.59290000     -70.05560000
C      -43.94630000     -34.79040000     -70.85270000
C      -43.06310000     -35.42170000     -71.82940000
C      -43.09260000     -36.84150000     -71.88010000
C      -43.80330000     -37.64780000     -70.95340000
H      -45.42480000     -37.65150000     -69.49350000
H      -44.03680000     -33.76590000     -70.82380000
H      -42.38030000     -37.24230000     -72.57680000
H      -43.75870000     -38.75670000     -70.91080000
C      -42.27250000     -34.81670000     -72.96400000
H      -42.34530000     -35.36790000     -73.87530000
H      -41.20950000     -34.71130000     -72.69590000
C      -45.82400000     -34.96790000     -69.26790000
H      -45.71370000     -35.23950000     -68.19430000
H      -45.80560000     -33.85260000     -69.37690000
S      -42.81610000     -33.07110000     -73.34900000
S      -47.61200000     -35.35700000     -70.00450000
C      -44.54170000     -33.37630000     -73.91600000
H      -44.41440000     -33.93920000     -74.83110000
H      -44.94890000     -34.08710000     -73.18610000
C      -47.40260000     -34.89320000     -71.77200000
H      -47.76450000     -35.74350000     -72.32820000
H      -46.34730000     -34.93660000     -71.96650000
C      -48.01550000     -33.56650000     -72.23810000
H      -47.70900000     -33.48870000     -73.24320000
H      -49.09520000     -33.52760000     -72.10090000
C      -45.26240000     -32.07230000     -73.90880000
H      -46.26230000     -32.39810000     -74.10030000
H      -44.95660000     -31.35460000     -74.65580000
C      -45.21110000     -31.40290000     -72.56700000
C      -44.29030000     -30.43360000     -72.24310000
C      -46.18600000     -31.70620000     -71.53750000
H      -43.39650000     -30.13000000     -72.77970000
C      -45.95600000     -30.89980000     -70.39200000
C      -47.37700000     -32.54930000     -71.35910000
C      -48.02460000     -32.15970000     -70.17200000
S      -44.46450000     -29.94850000     -70.57340000
S      -47.07490000     -31.11740000     -69.13860000
H      -48.89170000     -32.62100000     -69.77950000
