40
Properties=species:S:1:pos:R:3 #=T CELL(abcABC):=T 1.889726e+02=T 90.00000=T Traj:=T positionsangstrom=T Step:=T 0=T Bead:=T pbc="F F F"
C      -44.85920000     -36.93460000     -70.24260000
C      -43.66900000     -36.22850000     -70.44770000
C      -43.32280000     -35.16400000     -69.58790000
C      -44.10910000     -34.73000000     -68.52620000
C      -45.24420000     -35.41500000     -68.25570000
C      -45.58080000     -36.54200000     -69.10690000
H      -45.36630000     -37.65960000     -70.84120000
H      -42.47270000     -34.55460000     -69.68200000
H      -45.93510000     -35.04740000     -67.45650000
H      -46.54260000     -37.03940000     -69.04490000
C      -43.52140000     -33.64930000     -67.62940000
H      -42.53750000     -33.99580000     -67.32820000
H      -44.08980000     -33.65300000     -66.65960000
C      -42.90610000     -36.48360000     -71.64900000
H      -41.98980000     -36.95160000     -71.32610000
H      -43.37490000     -37.28900000     -72.19520000
S      -43.56750000     -31.93580000     -68.24110000
S      -42.56110000     -35.00420000     -72.66890000
C      -45.31340000     -31.86990000     -68.91980000
H      -45.92040000     -32.54090000     -68.32600000
H      -45.63010000     -30.85010000     -68.74500000
C      -44.24070000     -34.59830000     -73.07770000
H      -44.80460000     -34.46940000     -72.14680000
H      -44.71200000     -35.42340000     -73.58530000
C      -44.26580000     -33.17240000     -73.74640000
H      -43.53570000     -32.51250000     -73.26600000
H      -43.95620000     -33.36310000     -74.72400000
C      -45.14570000     -32.18100000     -70.44920000
H      -44.73340000     -33.15890000     -70.62900000
H      -44.46400000     -31.39110000     -70.81470000
C      -46.37080000     -31.88030000     -71.23820000
C      -47.51420000     -31.49710000     -70.66740000
C      -46.45630000     -31.97220000     -72.64990000
H      -47.73920000     -31.45150000     -69.58690000
C      -47.75760000     -31.60920000     -73.11130000
C      -45.64410000     -32.61270000     -73.72260000
C      -46.34750000     -32.60630000     -74.87060000
S      -48.72430000     -31.06390000     -71.85970000
S      -47.96460000     -31.99770000     -74.83160000
H      -46.02360000     -33.04240000     -75.83680000
