40
Properties=species:S:1:pos:R:3 #=T CELL(abcABC):=T 1.889726e+02=T 90.00000=T Traj:=T positionsangstrom=T Step:=T 0=T Bead:=T pbc="F F F"
C      -45.70910000     -37.40330000     -71.85030000
C      -45.31890000     -36.15940000     -71.27430000
C      -44.39660000     -35.34600000     -71.97900000
C      -44.08440000     -35.62170000     -73.30610000
C      -44.42990000     -36.90980000     -73.85020000
C      -45.26030000     -37.84150000     -73.10900000
H      -46.45360000     -37.98640000     -71.33730000
H      -44.07930000     -34.33290000     -71.57400000
H      -44.15300000     -37.22240000     -74.82080000
H      -45.56750000     -38.82380000     -73.62940000
C      -43.24740000     -34.66090000     -74.24650000
H      -43.37620000     -34.90870000     -75.34990000
H      -42.21440000     -34.90500000     -74.16980000
C      -45.73800000     -35.73330000     -69.93980000
H      -45.42390000     -36.52450000     -69.23410000
H      -45.22550000     -34.77970000     -69.72890000
S      -43.36220000     -32.92680000     -73.79020000
S      -47.50690000     -35.44130000     -69.73710000
C      -45.24590000     -32.64970000     -73.82080000
H      -45.54250000     -32.70430000     -74.83110000
H      -45.68650000     -33.41630000     -73.23660000
C      -47.97250000     -34.40460000     -71.22910000
H      -48.92510000     -34.69200000     -71.65360000
H      -47.22550000     -34.65450000     -71.95860000
C      -47.96870000     -32.86860000     -70.96570000
H      -47.94130000     -32.42360000     -71.97590000
H      -49.01920000     -32.60720000     -70.61130000
C      -45.75080000     -31.31010000     -73.30390000
H      -46.88510000     -31.30890000     -73.36750000
H      -45.42430000     -30.51910000     -74.03520000
C      -45.20470000     -30.97050000     -71.92740000
C      -44.17380000     -30.12340000     -71.69460000
C      -45.67270000     -31.54380000     -70.62290000
H      -43.69420000     -29.49020000     -72.49230000
C      -44.84090000     -31.07130000     -69.57740000
C      -46.83110000     -32.31660000     -70.11950000
C      -46.82120000     -32.37880000     -68.73230000
S      -43.57660000     -29.97320000     -70.04830000
S      -45.33020000     -31.60350000     -67.97290000
H      -47.51600000     -32.91340000     -68.09300000
