40
Properties=species:S:1:pos:R:3 #=T CELL(abcABC):=T 1.889726e+02=T 90.00000=T Traj:=T positionsangstrom=T Step:=T 0=T Bead:=T pbc="F F F"
C      -49.06630000     -33.91710000     -70.09230000
C      -48.43910000     -32.79620000     -69.47640000
C      -47.21900000     -33.09840000     -68.75040000
C      -46.68570000     -34.42500000     -68.64880000
C      -47.34760000     -35.44500000     -69.32090000
C      -48.55270000     -35.20460000     -69.96570000
H      -49.90660000     -33.81560000     -70.70670000
H      -46.64220000     -32.30510000     -68.23740000
H      -46.81840000     -36.41060000     -69.28360000
H      -49.18020000     -35.99050000     -70.25750000
C      -45.53670000     -34.81720000     -67.85860000
H      -45.20680000     -35.84720000     -68.16630000
H      -45.79920000     -34.93730000     -66.80750000
C      -48.88550000     -31.40010000     -69.75860000
H      -49.86220000     -31.35610000     -70.10310000
H      -48.83610000     -30.77180000     -68.83420000
S      -44.08130000     -33.63270000     -68.02010000
S      -47.70180000     -30.39620000     -70.83440000
C      -43.62230000     -34.22470000     -69.67930000
H      -43.08820000     -35.14490000     -69.41180000
H      -44.51890000     -34.50070000     -70.19950000
C      -47.09220000     -31.54970000     -72.09630000
H      -47.23680000     -31.07300000     -73.11290000
H      -47.75290000     -32.45210000     -72.03950000
C      -45.60080000     -31.90590000     -71.89400000
H      -44.88950000     -31.03340000     -71.67860000
H      -45.56960000     -32.52270000     -71.00010000
C      -42.73170000     -33.25220000     -70.50490000
H      -41.77510000     -33.21730000     -70.05300000
H      -43.14310000     -32.21590000     -70.43460000
C      -42.68690000     -33.73710000     -71.88700000
C      -41.64830000     -34.49030000     -72.38220000
C      -43.65190000     -33.42650000     -72.92430000
H      -40.72360000     -34.71170000     -71.84880000
C      -43.29040000     -33.91960000     -74.10690000
C      -44.97540000     -32.72170000     -73.01960000
C      -45.62430000     -32.83200000     -74.18730000
S      -41.84750000     -34.92040000     -74.08680000
S      -44.55600000     -33.72790000     -75.32910000
H      -46.42170000     -32.26450000     -74.75840000
