40
Properties=species:S:1:pos:R:3 #=T CELL(abcABC):=T 1.889726e+02=T 90.00000=T Traj:=T positionsangstrom=T Step:=T 0=T Bead:=T pbc="F F F"
C      -45.51830000     -35.82950000     -72.38990000
C      -44.32290000     -35.28840000     -72.95720000
C      -44.33760000     -34.00110000     -73.52340000
C      -45.55840000     -33.30300000     -73.63610000
C      -46.78520000     -33.95270000     -73.25960000
C      -46.73460000     -35.23400000     -72.71390000
H      -45.50270000     -36.70730000     -71.79220000
H      -43.39870000     -33.50080000     -73.94480000
H      -47.73600000     -33.48120000     -73.54910000
H      -47.60480000     -35.73060000     -72.35820000
C      -45.43590000     -31.84160000     -74.12140000
H      -45.56000000     -31.86910000     -75.20340000
H      -44.43150000     -31.56110000     -73.83230000
C      -43.03240000     -36.04590000     -72.64420000
H      -43.28510000     -36.94220000     -72.06930000
H      -42.59630000     -36.34210000     -73.58920000
S      -46.65650000     -30.52960000     -73.41710000
S      -41.61530000     -35.14290000     -71.95870000
C      -45.63450000     -29.80150000     -72.13030000
H      -44.76290000     -29.36070000     -72.68290000
H      -46.20850000     -29.08850000     -71.65220000
C      -42.03220000     -34.35970000     -70.28890000
H      -41.10040000     -33.90560000     -70.03430000
H      -42.19540000     -35.16500000     -69.54170000
C      -43.11950000     -33.29920000     -70.30340000
H      -42.81980000     -32.51260000     -69.59670000
H      -43.17580000     -32.89200000     -71.34010000
C      -45.04020000     -30.76820000     -71.17290000
H      -44.44670000     -30.24980000     -70.43550000
H      -44.34590000     -31.42040000     -71.72890000
C      -46.03200000     -31.62080000     -70.44100000
C      -47.34850000     -31.34050000     -70.09400000
C      -45.65160000     -32.91640000     -69.89680000
H      -47.86930000     -30.38810000     -70.31180000
C      -46.74290000     -33.51370000     -69.26820000
C      -44.43040000     -33.74610000     -69.81400000
C      -44.66800000     -34.99500000     -69.21650000
S      -48.20080000     -32.59840000     -69.23800000
S      -46.37540000     -35.00970000     -68.60390000
H      -43.95580000     -35.81850000     -69.14850000
