40
Properties=species:S:1:pos:R:3 #=T CELL(abcABC):=T 1.889726e+02=T 90.00000=T Traj:=T positionsangstrom=T Step:=T 0=T Bead:=T pbc="F F F"
C      -46.88650000     -36.78500000     -72.23490000
C      -45.84080000     -36.09270000     -71.56680000
C      -44.84240000     -35.50450000     -72.30560000
C      -44.82120000     -35.51740000     -73.71990000
C      -46.02770000     -35.90910000     -74.35310000
C      -46.97710000     -36.69170000     -73.61320000
H      -47.61780000     -37.27580000     -71.61070000
H      -43.96220000     -35.13070000     -71.74470000
H      -46.07020000     -35.65460000     -75.43980000
H      -47.93750000     -36.93010000     -74.11960000
C      -43.83290000     -34.55120000     -74.54830000
H      -44.05810000     -34.67690000     -75.64460000
H      -42.88680000     -34.95930000     -74.40750000
C      -45.91860000     -36.01440000     -70.05050000
H      -45.92710000     -37.01820000     -69.62500000
H      -45.10190000     -35.37140000     -69.58380000
S      -43.86690000     -32.74200000     -74.24330000
S      -47.45200000     -35.19250000     -69.52510000
C      -45.61080000     -32.38380000     -73.75340000
H      -46.15380000     -32.08790000     -74.62110000
H      -45.97530000     -33.27100000     -73.30840000
C      -47.78000000     -33.84910000     -70.85580000
H      -48.79420000     -34.00040000     -71.15010000
H      -47.13170000     -33.98440000     -71.70010000
C      -47.65780000     -32.47430000     -70.32620000
H      -47.73670000     -31.74500000     -71.10700000
H      -48.45450000     -32.28490000     -69.57350000
C      -45.67190000     -31.20110000     -72.80460000
H      -46.74710000     -31.15090000     -72.50010000
H      -45.51830000     -30.24830000     -73.35540000
C      -44.82840000     -31.20370000     -71.60020000
C      -43.48920000     -30.85600000     -71.75510000
C      -45.17870000     -31.60550000     -70.26740000
H      -43.02110000     -30.41120000     -72.62100000
C      -44.08240000     -31.61740000     -69.42680000
C      -46.38320000     -32.17680000     -69.63890000
C      -46.15870000     -32.32330000     -68.27920000
S      -42.56980000     -31.08670000     -70.23500000
S      -44.47070000     -32.05010000     -67.79370000
H      -46.74140000     -32.63410000     -67.42500000
