40
Properties=species:S:1:pos:R:3 #=T CELL(abcABC):=T 1.889726e+02=T 90.00000=T Traj:=T positionsangstrom=T Step:=T 0=T Bead:=T pbc="F F F"
C      -47.16240000     -36.81350000     -72.21420000
C      -46.20150000     -35.97770000     -71.65950000
C      -45.39440000     -35.21230000     -72.52060000
C      -45.54590000     -35.32080000     -73.96270000
C      -46.39830000     -36.30330000     -74.44160000
C      -47.22140000     -36.99040000     -73.54650000
H      -47.76240000     -37.41010000     -71.56580000
H      -44.94980000     -34.22420000     -72.19000000
H      -46.42800000     -36.55370000     -75.50830000
H      -47.86570000     -37.76170000     -73.93720000
C      -44.65240000     -34.49990000     -74.86620000
H      -44.96950000     -34.61830000     -75.91190000
H      -43.67270000     -35.04510000     -74.80870000
C      -46.11010000     -35.73460000     -70.18100000
H      -46.06210000     -36.72520000     -69.66630000
H      -45.16000000     -35.20880000     -70.00290000
S      -44.23760000     -32.72280000     -74.42780000
S      -47.73870000     -34.92280000     -69.64080000
C      -45.64050000     -32.04150000     -73.50860000
H      -46.46770000     -31.64030000     -74.24620000
H      -46.24320000     -32.93150000     -72.92460000
C      -47.89290000     -33.30550000     -70.61320000
H      -48.96200000     -33.23890000     -70.76180000
H      -47.56890000     -33.65720000     -71.54930000
C      -47.31930000     -32.01710000     -70.14140000
H      -47.31430000     -31.33540000     -70.99910000
H      -48.04960000     -31.60180000     -69.40250000
C      -45.33920000     -30.85610000     -72.57390000
H      -46.28950000     -30.60520000     -72.08490000
H      -45.02710000     -29.95000000     -73.14660000
C      -44.33860000     -31.18760000     -71.46480000
C      -43.00650000     -30.99760000     -71.62610000
C      -44.72280000     -31.73360000     -70.16070000
H      -42.52630000     -30.55880000     -72.52370000
C      -43.62090000     -31.87500000     -69.34880000
C      -45.96210000     -32.01800000     -69.51450000
C      -45.81950000     -32.42620000     -68.22940000
S      -42.11360000     -31.53370000     -70.22310000
S      -44.06680000     -32.52510000     -67.72190000
H      -46.67120000     -32.86100000     -67.68640000
