40
Properties=species:S:1:pos:R:3 #=T CELL(abcABC):=T 1.889726e+02=T 90.00000=T Traj:=T positionsangstrom=T Step:=T 0=T Bead:=T pbc="F F F"
C      -47.15180000     -35.27060000     -72.74850000
C      -45.86810000     -34.81540000     -72.90990000
C      -45.69820000     -33.47530000     -73.31140000
C      -46.78110000     -32.56540000     -73.42990000
C      -48.08410000     -33.02610000     -73.13060000
C      -48.25370000     -34.38830000     -72.85700000
H      -47.30530000     -36.29210000     -72.45970000
H      -44.72970000     -33.07280000     -73.51650000
H      -48.98690000     -32.40880000     -73.22530000
H      -49.30460000     -34.73290000     -72.67920000
C      -46.48750000     -31.14280000     -73.93260000
H      -47.35490000     -30.87630000     -74.49660000
H      -45.53510000     -30.97840000     -74.33630000
C      -44.66640000     -35.79440000     -72.90270000
H      -44.66840000     -36.31850000     -71.95500000
H      -44.91940000     -36.49520000     -73.65320000
S      -46.70400000     -29.87960000     -72.54670000
S      -43.02990000     -35.07970000     -73.33050000
C      -45.08610000     -29.79570000     -71.66640000
H      -44.43840000     -29.20490000     -72.32960000
H      -45.30900000     -29.28610000     -70.70750000
C      -41.97840000     -35.15600000     -71.77730000
H      -40.94350000     -35.15080000     -72.08220000
H      -42.10690000     -36.15440000     -71.27920000
C      -42.25430000     -34.00710000     -70.78690000
H      -41.40330000     -34.01920000     -70.06460000
H      -42.18000000     -33.03820000     -71.26630000
C      -44.45190000     -31.16390000     -71.30560000
H      -43.54350000     -30.95960000     -70.83980000
H      -44.14140000     -31.81350000     -72.18350000
C      -45.12520000     -32.07550000     -70.27310000
C      -46.29020000     -31.63140000     -69.58730000
C      -44.63870000     -33.37880000     -69.90050000
H      -46.74030000     -30.62690000     -69.61330000
C      -45.49360000     -33.96650000     -68.96470000
C      -43.49690000     -34.26450000     -70.06680000
C      -43.52490000     -35.38170000     -69.31970000
S      -46.84230000     -32.95620000     -68.53680000
S      -45.01240000     -35.55220000     -68.32820000
H      -42.82080000     -36.19720000     -69.34160000
