40
Properties=species:S:1:pos:R:3 #=T CELL(abcABC):=T 1.889726e+02=T 90.00000=T Traj:=T positionsangstrom=T Step:=T 0=T Bead:=T pbc="F F F"
C      -46.37980000     -35.66290000     -72.74920000
C      -45.09370000     -35.05800000     -72.94640000
C      -45.02950000     -33.71640000     -73.45620000
C      -46.25370000     -32.99860000     -73.62770000
C      -47.46620000     -33.61690000     -73.34940000
C      -47.58200000     -34.94370000     -72.96710000
H      -46.37880000     -36.71450000     -72.28220000
H      -44.12600000     -33.21960000     -73.53190000
H      -48.38020000     -33.10590000     -73.56570000
H      -48.55560000     -35.41810000     -72.78980000
C      -46.30540000     -31.60880000     -74.24950000
H      -46.93230000     -31.64900000     -75.08550000
H      -45.36550000     -31.26410000     -74.62520000
C      -43.83370000     -35.78790000     -72.57820000
H      -43.80480000     -36.04010000     -71.55360000
H      -43.61660000     -36.67300000     -73.17430000
S      -46.93900000     -30.29030000     -73.01160000
S      -42.21990000     -34.81170000     -72.70560000
C      -45.45470000     -29.92850000     -72.05940000
H      -44.66110000     -29.43440000     -72.63260000
H      -45.85820000     -29.09370000     -71.47470000
C      -41.71730000     -34.59230000     -70.91610000
H      -40.66110000     -34.33840000     -71.01770000
H      -41.88170000     -35.51640000     -70.28760000
C      -42.41800000     -33.39580000     -70.26280000
H      -41.74610000     -33.10890000     -69.43670000
H      -42.49360000     -32.61680000     -71.04870000
C      -44.76650000     -31.02800000     -71.20120000
H      -44.05680000     -30.48850000     -70.56890000
H      -44.11330000     -31.61870000     -71.86880000
C      -45.56770000     -31.95430000     -70.34590000
C      -46.87570000     -31.64330000     -69.95490000
C      -45.07800000     -33.14060000     -69.73200000
H      -47.37440000     -30.76760000     -70.27550000
C      -46.13740000     -33.83450000     -69.13910000
C      -43.77620000     -33.81690000     -69.61190000
C      -43.90000000     -34.94430000     -68.91130000
S      -47.65740000     -33.02820000     -69.14360000
S      -45.51410000     -35.23230000     -68.25410000
H      -43.03210000     -35.47050000     -68.64000000
