40
Properties=species:S:1:pos:R:3 #=T CELL(abcABC):=T 1.889726e+02=T 90.00000=T Traj:=T positionsangstrom=T Step:=T 0=T Bead:=T pbc="F F F"
C      -46.49540000     -35.60350000     -72.85670000
C      -45.23590000     -34.94750000     -72.87460000
C      -45.08590000     -33.65530000     -73.32150000
C      -46.19560000     -32.91030000     -73.66610000
C      -47.46960000     -33.51680000     -73.69220000
C      -47.59420000     -34.83710000     -73.30200000
H      -46.62410000     -36.55850000     -72.44560000
H      -44.06550000     -33.18520000     -73.32680000
H      -48.28380000     -32.96020000     -74.17830000
H      -48.60540000     -35.26590000     -73.50550000
C      -45.97530000     -31.42800000     -74.07170000
H      -46.38520000     -31.34550000     -75.07370000
H      -44.94940000     -31.14520000     -74.10370000
C      -44.14760000     -35.85590000     -72.49120000
H      -44.21630000     -36.17840000     -71.43370000
H      -44.19210000     -36.69550000     -73.17850000
S      -46.92590000     -30.29660000     -72.97530000
S      -42.49820000     -35.19280000     -72.86910000
C      -45.58470000     -29.74180000     -71.79650000
H      -44.89110000     -29.12030000     -72.36090000
H      -46.07830000     -29.12540000     -71.05540000
C      -41.81310000     -34.50190000     -71.29450000
H      -40.78540000     -34.14140000     -71.58860000
H      -41.62850000     -35.34630000     -70.58590000
C      -42.62640000     -33.30070000     -70.61550000
H      -41.97760000     -32.80140000     -69.88960000
H      -42.95290000     -32.55440000     -71.34250000
C      -44.80460000     -30.88550000     -71.06960000
H      -44.00730000     -30.38540000     -70.49720000
H      -44.31490000     -31.40650000     -71.85830000
C      -45.61760000     -31.86540000     -70.23750000
C      -46.82610000     -31.62480000     -69.60640000
C      -45.10980000     -33.14640000     -69.83890000
H      -47.50060000     -30.86420000     -69.80680000
C      -45.98210000     -33.88660000     -68.98450000
C      -43.84410000     -33.87510000     -69.88100000
C      -43.76580000     -35.02210000     -69.16570000
S      -47.42830000     -33.01030000     -68.74170000
S      -45.23420000     -35.31470000     -68.21810000
H      -42.92300000     -35.79380000     -69.07460000
