40
Properties=species:S:1:pos:R:3 #=T CELL(abcABC):=T 1.889726e+02=T 90.00000=T Traj:=T positionsangstrom=T Step:=T 0=T Bead:=T pbc="F F F"
C      -46.89820000     -35.36660000     -72.93610000
C      -45.55780000     -34.87870000     -73.01940000
C      -45.34400000     -33.54240000     -73.35510000
C      -46.41940000     -32.66790000     -73.63140000
C      -47.75310000     -33.18770000     -73.59240000
C      -47.96630000     -34.55850000     -73.22890000
H      -47.01750000     -36.38770000     -72.56990000
H      -44.32270000     -33.12100000     -73.39080000
H      -48.56870000     -32.50220000     -73.85240000
H      -48.96960000     -34.94560000     -73.11960000
C      -46.08630000     -31.21770000     -73.89400000
H      -46.46820000     -30.73850000     -74.82140000
H      -45.00410000     -31.14200000     -73.87830000
C      -44.44520000     -35.82390000     -72.65970000
H      -44.28980000     -35.90030000     -71.62340000
H      -44.72350000     -36.80760000     -73.02640000
S      -46.82280000     -30.16710000     -72.52930000
S      -42.78950000     -35.33230000     -73.31750000
C      -45.30290000     -29.86640000     -71.54690000
H      -44.52920000     -29.47930000     -72.20760000
H      -45.61110000     -29.02780000     -70.90620000
C      -41.93080000     -34.81450000     -71.75130000
H      -40.96060000     -34.53560000     -72.04430000
H      -41.62310000     -35.62480000     -71.16420000
C      -42.52840000     -33.67630000     -70.96630000
H      -41.71450000     -33.18350000     -70.44330000
H      -42.89160000     -32.97920000     -71.77730000
C      -44.60350000     -31.07350000     -71.03770000
H      -43.71890000     -30.76610000     -70.47640000
H      -44.26070000     -31.55780000     -71.90560000
C      -45.43250000     -32.00350000     -70.24520000
C      -46.72630000     -31.78680000     -69.76070000
C      -44.85690000     -33.24910000     -69.77910000
H      -47.46760000     -30.98700000     -70.00250000
C      -45.70460000     -33.88130000     -68.84540000
C      -43.64990000     -33.97950000     -69.95390000
C      -43.58770000     -35.10730000     -69.19640000
S      -47.17940000     -33.01390000     -68.57800000
S      -45.04500000     -35.25350000     -68.10780000
H      -42.80030000     -35.79090000     -69.18240000
