40
Properties=species:S:1:pos:R:3 #=T CELL(abcABC):=T 1.889726e+02=T 90.00000=T Traj:=T positionsangstrom=T Step:=T 0=T Bead:=T pbc="F F F"
C      -47.24310000     -35.10540000     -72.48280000
C      -46.13580000     -34.79910000     -73.32890000
C      -45.92130000     -33.46670000     -73.60210000
C      -46.86640000     -32.39370000     -73.11020000
C      -47.97870000     -32.76260000     -72.33200000
C      -48.07780000     -34.12060000     -72.00800000
H      -47.35310000     -36.10580000     -72.28870000
H      -44.99560000     -33.19390000     -73.97110000
H      -48.72780000     -32.04800000     -71.82980000
H      -48.94380000     -34.36090000     -71.35910000
C      -46.54090000     -30.98050000     -73.50800000
H      -47.26910000     -30.40790000     -74.10940000
H      -45.53240000     -30.90870000     -73.89830000
C      -45.26220000     -35.92910000     -73.83990000
H      -45.21140000     -36.69150000     -73.07850000
H      -45.68320000     -36.41350000     -74.76680000
S      -46.48530000     -29.88320000     -72.00250000
S      -43.49190000     -35.57250000     -74.23110000
C      -44.67450000     -29.78660000     -71.51340000
H      -44.10500000     -29.34850000     -72.35880000
H      -44.56080000     -29.19290000     -70.62960000
C      -42.66910000     -35.59840000     -72.59570000
H      -41.67990000     -35.54400000     -72.92720000
H      -42.79070000     -36.58710000     -72.14470000
C      -42.95510000     -34.41490000     -71.57780000
H      -41.98000000     -34.35030000     -71.01950000
H      -43.15430000     -33.60530000     -72.23830000
C      -44.10580000     -31.24580000     -71.28290000
H      -43.06820000     -31.20420000     -71.04120000
H      -44.16570000     -31.92520000     -72.15360000
C      -44.75230000     -31.94560000     -70.12540000
C      -45.48030000     -31.31000000     -69.19340000
C      -44.58330000     -33.46960000     -69.85530000
H      -45.63160000     -30.27100000     -69.21990000
C      -45.31630000     -33.81020000     -68.73020000
C      -43.91930000     -34.61500000     -70.45040000
C      -44.02630000     -35.77180000     -69.74950000
S      -46.02820000     -32.39370000     -67.90480000
S      -45.07820000     -35.49240000     -68.35900000
H      -43.61210000     -36.77980000     -69.84000000
