40
Properties=species:S:1:pos:R:3 #=T CELL(abcABC):=T 1.889726e+02=T 90.00000=T Traj:=T positionsangstrom=T Step:=T 0=T Bead:=T pbc="F F F"
C      -47.50690000     -35.06930000     -72.69110000
C      -46.29530000     -34.78710000     -73.37910000
C      -46.07960000     -33.42930000     -73.65340000
C      -46.97660000     -32.43680000     -73.19660000
C      -48.14110000     -32.75170000     -72.56690000
C      -48.43570000     -34.11820000     -72.29720000
H      -47.75590000     -36.09540000     -72.53420000
H      -45.09840000     -33.16230000     -73.94080000
H      -48.88890000     -31.97970000     -72.24380000
H      -49.41990000     -34.38480000     -71.79490000
C      -46.55330000     -30.99210000     -73.36790000
H      -47.25010000     -30.60580000     -74.16700000
H      -45.58150000     -31.07380000     -73.80280000
C      -45.49430000     -35.98100000     -73.90610000
H      -45.62270000     -36.92130000     -73.30230000
H      -45.93960000     -36.20270000     -74.90840000
S      -46.57950000     -29.96800000     -71.91170000
S      -43.75690000     -35.62060000     -74.36180000
C      -44.81570000     -29.92120000     -71.51570000
H      -44.30700000     -29.39870000     -72.32740000
H      -44.73930000     -29.33520000     -70.62280000
C      -42.93380000     -35.60320000     -72.65510000
H      -41.87910000     -35.65890000     -72.80920000
H      -43.29280000     -36.40360000     -72.08120000
C      -43.08340000     -34.28160000     -71.84450000
H      -41.98320000     -34.03450000     -71.63760000
H      -43.46550000     -33.57240000     -72.55550000
C      -44.12500000     -31.20080000     -71.21600000
H      -43.01070000     -31.08720000     -71.23390000
H      -44.38400000     -32.08980000     -71.93340000
C      -44.45330000     -31.88610000     -69.83980000
C      -45.01430000     -31.23660000     -68.78740000
C      -44.38200000     -33.32300000     -69.74990000
H      -45.19120000     -30.21160000     -68.66550000
C      -44.92080000     -33.79260000     -68.51700000
C      -43.88490000     -34.47310000     -70.55280000
C      -44.05100000     -35.71680000     -69.98390000
S      -45.42950000     -32.46180000     -67.50940000
S      -44.97820000     -35.48890000     -68.48820000
H      -43.84750000     -36.69570000     -70.33130000
