40
Properties=species:S:1:pos:R:3 #=T CELL(abcABC):=T 1.889726e+02=T 90.00000=T Traj:=T positionsangstrom=T Step:=T 0=T Bead:=T pbc="F F F"
C      -43.95980000     -36.81190000     -70.43510000
C      -43.08450000     -36.11760000     -71.35740000
C      -42.42290000     -34.94430000     -70.86430000
C      -42.79590000     -34.32550000     -69.62790000
C      -43.69690000     -35.05060000     -68.80180000
C      -44.25410000     -36.30140000     -69.18030000
H      -44.42930000     -37.75630000     -70.69900000
H      -41.83690000     -34.39430000     -71.57040000
H      -43.84450000     -34.67320000     -67.79100000
H      -44.92740000     -36.84470000     -68.47510000
C      -42.02470000     -33.05420000     -69.21310000
H      -40.92890000     -33.04500000     -69.26830000
H      -42.26910000     -32.71020000     -68.15310000
C      -42.71150000     -36.64300000     -72.72350000
H      -41.68800000     -36.62190000     -72.83750000
H      -43.01140000     -37.65630000     -72.81630000
S      -42.44000000     -31.49240000     -70.22750000
S      -43.41520000     -35.38070000     -73.77990000
C      -44.26970000     -31.35700000     -69.85960000
H      -44.68420000     -32.35300000     -69.56680000
H      -44.49340000     -30.80340000     -68.94940000
C      -45.15070000     -35.17910000     -73.05060000
H      -45.50400000     -36.19960000     -72.75050000
H      -45.83190000     -35.00680000     -73.89630000
C      -45.38690000     -34.00240000     -72.14490000
H      -45.14850000     -34.26150000     -71.08530000
H      -44.58090000     -33.24380000     -72.36040000
C      -44.91880000     -30.85630000     -71.08610000
H      -44.40590000     -31.36080000     -71.82590000
H      -44.56610000     -29.88020000     -71.27370000
C      -46.43720000     -31.02450000     -71.17210000
C      -47.28770000     -30.05910000     -70.80020000
C      -47.16460000     -32.17810000     -71.61350000
H      -47.05080000     -29.03090000     -70.51690000
C      -48.56760000     -32.04030000     -71.61340000
C      -46.81920000     -33.41700000     -72.24480000
C      -47.90450000     -34.17410000     -72.53110000
S      -48.99980000     -30.44870000     -71.01840000
S      -49.45360000     -33.39330000     -72.26890000
H      -47.84280000     -35.03110000     -73.09490000
