40
Properties=species:S:1:pos:R:3 #=T CELL(abcABC):=T 1.889726e+02=T 90.00000=T Traj:=T positionsangstrom=T Step:=T 0=T Bead:=T pbc="F F F"
C      -47.92390000     -35.80760000     -72.90650000
C      -46.81780000     -35.36210000     -72.21850000
C      -45.84680000     -34.54190000     -72.88820000
C      -46.12500000     -34.19320000     -74.18620000
C      -47.19810000     -34.79950000     -74.91820000
C      -48.14490000     -35.53710000     -74.25060000
H      -48.61060000     -36.42660000     -72.35800000
H      -44.90560000     -34.16630000     -72.27320000
H      -47.28440000     -34.56760000     -75.94640000
H      -48.88120000     -36.06750000     -74.86930000
C      -45.09600000     -33.42710000     -74.95500000
H      -45.59710000     -33.13290000     -75.92750000
H      -44.24510000     -34.02180000     -75.33060000
C      -46.54770000     -35.79310000     -70.79870000
H      -46.72790000     -36.89050000     -70.78550000
H      -45.45800000     -35.62160000     -70.62870000
S      -44.38030000     -32.01150000     -74.08630000
S      -47.58330000     -35.00320000     -69.58460000
C      -45.69940000     -31.32050000     -73.01470000
H      -46.34750000     -30.72870000     -73.66320000
H      -46.25620000     -32.08870000     -72.54670000
C      -47.69940000     -33.28220000     -70.14960000
H      -48.72690000     -32.94630000     -70.31530000
H      -47.30750000     -33.23610000     -71.14970000
C      -46.99920000     -32.30590000     -69.29020000
H      -47.08490000     -31.40180000     -69.87710000
H      -47.63200000     -32.37620000     -68.32660000
C      -45.04410000     -30.48210000     -71.87150000
H      -45.92210000     -30.03240000     -71.32800000
H      -44.48220000     -29.73050000     -72.37640000
C      -44.08530000     -31.32620000     -71.03320000
C      -42.77290000     -31.39320000     -71.32740000
C      -44.39680000     -32.25940000     -69.86700000
H      -42.17350000     -30.72870000     -71.96450000
C      -43.27240000     -32.92450000     -69.43840000
C      -45.54320000     -32.65480000     -69.03530000
C      -45.25660000     -33.63380000     -68.10040000
S      -41.81630000     -32.47120000     -70.35660000
S      -43.53070000     -34.05980000     -68.16750000
H      -45.99370000     -34.02620000     -67.34180000
