40
Properties=species:S:1:pos:R:3 #=T CELL(abcABC):=T 1.889726e+02=T 90.00000=T Traj:=T positionsangstrom=T Step:=T 0=T Bead:=T pbc="F F F"
C      -43.94340000     -36.43800000     -69.76840000
C      -43.01850000     -35.98350000     -70.72300000
C      -42.32800000     -34.77010000     -70.47560000
C      -42.53190000     -34.05700000     -69.28520000
C      -43.48000000     -34.53120000     -68.36140000
C      -44.09800000     -35.79300000     -68.46510000
H      -44.36610000     -37.36600000     -69.95010000
H      -41.62710000     -34.47480000     -71.30000000
H      -43.70290000     -33.90350000     -67.50180000
H      -44.84380000     -36.13220000     -67.77950000
C      -41.97740000     -32.64240000     -69.15160000
H      -40.91620000     -32.66580000     -69.28820000
H      -42.30350000     -32.20450000     -68.22180000
C      -42.77910000     -36.66180000     -72.08450000
H      -41.80810000     -36.91820000     -72.10950000
H      -43.31350000     -37.56630000     -72.22890000
S      -42.68170000     -31.44380000     -70.42730000
S      -43.07520000     -35.29860000     -73.48050000
C      -44.48350000     -31.54100000     -70.03080000
H      -44.76310000     -32.59790000     -69.96530000
H      -44.62350000     -31.13940000     -69.04110000
C      -44.91040000     -35.24920000     -73.32950000
H      -45.23640000     -36.19630000     -72.92390000
H      -45.26370000     -35.16730000     -74.32390000
C      -45.27470000     -34.03290000     -72.45500000
H      -45.04580000     -34.21030000     -71.38500000
H      -44.65600000     -33.09550000     -72.72580000
C      -45.14310000     -30.82170000     -71.20280000
H      -44.62140000     -31.02750000     -72.12470000
H      -45.07480000     -29.74270000     -71.01890000
C      -46.62510000     -31.12480000     -71.40090000
C      -47.59810000     -30.27440000     -70.94220000
C      -47.23460000     -32.28960000     -71.99540000
H      -47.57240000     -29.40590000     -70.29340000
C      -48.61790000     -32.26930000     -71.92820000
C      -46.74560000     -33.55960000     -72.54040000
C      -47.75750000     -34.37410000     -72.98930000
S      -49.29720000     -30.77880000     -71.23250000
S      -49.36140000     -33.66920000     -72.63780000
H      -47.60250000     -35.31910000     -73.55550000
