40
Properties=species:S:1:pos:R:3 #=T CELL(abcABC):=T 1.889726e+02=T 90.00000=T Traj:=T positionsangstrom=T Step:=T 0=T Bead:=T pbc="F F F"
C      -44.02590000     -36.42790000     -69.86260000
C      -42.95040000     -35.99970000     -70.71480000
C      -42.26650000     -34.81760000     -70.27800000
C      -42.59080000     -34.00210000     -69.17710000
C      -43.63190000     -34.52190000     -68.36520000
C      -44.35320000     -35.64420000     -68.70960000
H      -44.60170000     -37.32860000     -70.13960000
H      -41.48820000     -34.47640000     -70.88490000
H      -43.86930000     -33.87630000     -67.56480000
H      -45.19690000     -35.99820000     -68.11870000
C      -42.07810000     -32.55800000     -69.06290000
H      -40.96840000     -32.44750000     -69.15920000
H      -42.39530000     -32.16770000     -68.08630000
C      -42.75340000     -36.61960000     -72.05100000
H      -41.67510000     -36.87530000     -72.31260000
H      -43.37940000     -37.49690000     -72.02540000
S      -42.64910000     -31.53410000     -70.49370000
S      -43.11610000     -35.56840000     -73.48190000
C      -44.47610000     -31.53120000     -70.19690000
H      -44.92160000     -32.48610000     -70.30380000
H      -44.67040000     -31.07510000     -69.20850000
C      -44.98840000     -35.25300000     -73.25940000
H      -45.37350000     -36.00150000     -72.61020000
H      -45.38570000     -35.22720000     -74.27600000
C      -45.25790000     -33.81580000     -72.76480000
H      -44.60100000     -33.69980000     -71.84600000
H      -44.86680000     -33.04780000     -73.50000000
C      -45.18810000     -30.69540000     -71.24410000
H      -44.77810000     -30.91640000     -72.24770000
H      -45.07180000     -29.61160000     -71.05340000
C      -46.62730000     -31.04130000     -71.34690000
C      -47.59690000     -30.23660000     -70.79960000
C      -47.17630000     -32.28960000     -71.84220000
H      -47.47530000     -29.24320000     -70.37050000
C      -48.52420000     -32.28090000     -71.83000000
C      -46.63340000     -33.49280000     -72.55780000
C      -47.64440000     -34.29540000     -73.01350000
S      -49.25590000     -30.82700000     -71.13450000
S      -49.28700000     -33.65600000     -72.63880000
H      -47.46140000     -35.20420000     -73.58570000
