40
Properties=species:S:1:pos:R:3 #=T CELL(abcABC):=T 1.889726e+02=T 90.00000=T Traj:=T positionsangstrom=T Step:=T 0=T Bead:=T pbc="F F F"
C      -47.13750000     -34.94920000     -72.69730000
C      -46.53610000     -34.35260000     -73.82660000
C      -46.66180000     -32.93770000     -73.95200000
C      -47.23340000     -32.15870000     -72.92590000
C      -47.67630000     -32.77720000     -71.77050000
C      -47.68500000     -34.19440000     -71.65500000
H      -46.99000000     -36.03350000     -72.68520000
H      -46.12110000     -32.32710000     -74.70250000
H      -48.12940000     -32.17140000     -70.96840000
H      -48.12870000     -34.65390000     -70.74190000
C      -47.03070000     -30.62110000     -73.05140000
H      -47.94360000     -30.09920000     -73.35030000
H      -46.31660000     -30.39010000     -73.88470000
C      -45.89570000     -35.20450000     -74.93200000
H      -46.40030000     -36.18630000     -74.91810000
H      -46.12400000     -34.81410000     -75.94640000
S      -46.59970000     -29.73070000     -71.44430000
S      -44.08410000     -35.33250000     -74.66910000
C      -44.80650000     -30.00560000     -71.36300000
H      -44.31560000     -29.46630000     -72.14400000
H      -44.53700000     -29.55310000     -70.43660000
C      -43.96180000     -35.59850000     -72.88060000
H      -43.47720000     -36.55200000     -72.73900000
H      -44.94540000     -35.91570000     -72.50150000
C      -43.28270000     -34.45990000     -72.07160000
H      -42.19360000     -34.42970000     -72.19430000
H      -43.81190000     -33.54640000     -72.36860000
C      -44.41890000     -31.47070000     -71.30150000
H      -43.35620000     -31.55620000     -71.62290000
H      -44.94920000     -31.96880000     -72.19950000
C      -44.65520000     -32.21840000     -70.07780000
C      -45.27680000     -31.72390000     -68.91400000
C      -44.28870000     -33.60180000     -69.84670000
H      -45.58310000     -30.76870000     -68.75740000
C      -44.63500000     -34.09360000     -68.59520000
C      -43.63890000     -34.64020000     -70.59550000
C      -43.43000000     -35.79990000     -69.88710000
S      -45.39090000     -32.86810000     -67.59780000
S      -44.11270000     -35.73990000     -68.27320000
H      -42.89080000     -36.58310000     -70.42650000
