40
Properties=species:S:1:pos:R:3 #=T CELL(abcABC):=T 1.889726e+02=T 90.00000=T Traj:=T positionsangstrom=T Step:=T 0=T Bead:=T pbc="F F F"
C      -43.88830000     -36.49650000     -70.21310000
C      -43.11570000     -35.79360000     -71.10150000
C      -42.46020000     -34.61890000     -70.60080000
C      -42.66320000     -34.13280000     -69.31340000
C      -43.53200000     -34.74750000     -68.45880000
C      -44.11700000     -35.96330000     -68.86810000
H      -44.28550000     -37.45190000     -70.51960000
H      -41.80480000     -34.12740000     -71.27550000
H      -43.59810000     -34.34960000     -67.44400000
H      -44.84960000     -36.44910000     -68.21610000
C      -42.01900000     -32.84830000     -68.88520000
H      -40.97110000     -32.79540000     -69.11890000
H      -42.22680000     -32.67080000     -67.83710000
C      -43.01220000     -36.36660000     -72.57240000
H      -41.97290000     -36.75440000     -72.57990000
H      -43.59050000     -37.29070000     -72.61510000
S      -42.53850000     -31.44640000     -69.97120000
S      -43.42220000     -35.35060000     -73.97280000
C      -44.36080000     -31.60110000     -70.00700000
H      -44.72970000     -32.61400000     -69.80000000
H      -44.72830000     -31.07580000     -69.18090000
C      -45.29930000     -35.16650000     -73.66530000
H      -45.74840000     -36.12250000     -73.25490000
H      -45.81220000     -35.01840000     -74.61540000
C      -45.46140000     -34.05170000     -72.64680000
H      -44.93730000     -34.26400000     -71.71430000
H      -44.93130000     -33.16260000     -73.02430000
C      -44.93990000     -30.97600000     -71.38900000
H      -44.47160000     -31.25490000     -72.31950000
H      -44.77500000     -29.87520000     -71.46730000
C      -46.37950000     -31.15920000     -71.46040000
C      -47.22180000     -30.10760000     -71.15380000
C      -47.13560000     -32.36060000     -71.83110000
H      -46.82110000     -29.11990000     -70.83730000
C      -48.51580000     -32.17850000     -71.63620000
C      -46.85810000     -33.68970000     -72.31740000
C      -47.93580000     -34.51900000     -72.54320000
S      -48.90800000     -30.56890000     -71.10950000
S      -49.38650000     -33.66420000     -72.05510000
H      -47.79060000     -35.50250000     -72.93110000
