40
Properties=species:S:1:pos:R:3 #=T CELL(abcABC):=T 1.889726e+02=T 90.00000=T Traj:=T positionsangstrom=T Step:=T 0=T Bead:=T pbc="F F F"
C      -44.03570000     -36.51500000     -69.83750000
C      -43.11310000     -35.93730000     -70.79280000
C      -42.71490000     -34.57490000     -70.59400000
C      -42.79490000     -33.96410000     -69.35350000
C      -43.70100000     -34.54090000     -68.45110000
C      -44.34770000     -35.75130000     -68.70800000
H      -44.39520000     -37.49120000     -70.08210000
H      -42.09360000     -34.19090000     -71.35060000
H      -43.95520000     -33.95880000     -67.54840000
H      -45.19290000     -36.15010000     -68.04780000
C      -42.04110000     -32.63820000     -69.08490000
H      -40.95350000     -32.77070000     -69.27990000
H      -42.21830000     -32.31180000     -68.08400000
C      -42.65440000     -36.70730000     -72.03470000
H      -41.56860000     -36.67610000     -72.12260000
H      -42.84070000     -37.75110000     -71.87630000
S      -42.58950000     -31.37810000     -70.32150000
S      -43.27510000     -35.78990000     -73.62030000
C      -44.42260000     -31.55600000     -70.14310000
H      -44.86590000     -32.56520000     -70.21850000
H      -44.67780000     -31.31200000     -69.11280000
C      -44.91450000     -35.23630000     -73.08990000
H      -45.20940000     -35.83790000     -72.17490000
H      -45.58740000     -35.68600000     -73.74560000
C      -45.11470000     -33.75770000     -72.86570000
H      -44.51770000     -33.28030000     -72.04470000
H      -44.76970000     -33.29520000     -73.76850000
C      -45.08320000     -30.61990000     -71.18650000
H      -44.57660000     -30.66740000     -72.12730000
H      -45.01700000     -29.57050000     -70.88830000
C      -46.58540000     -31.00010000     -71.35040000
C      -47.58040000     -30.17770000     -70.85010000
C      -47.14070000     -32.17320000     -71.98140000
H      -47.41380000     -29.21240000     -70.40560000
C      -48.54300000     -32.26520000     -71.86050000
C      -46.58850000     -33.37430000     -72.59570000
C      -47.62360000     -34.23130000     -73.04710000
S      -49.19140000     -30.89830000     -71.00570000
S      -49.18660000     -33.68780000     -72.54280000
H      -47.60080000     -35.07740000     -73.69860000
