40
Properties=species:S:1:pos:R:3 #=T CELL(abcABC):=T 1.889726e+02=T 90.00000=T Traj:=T positionsangstrom=T Step:=T 0=T Bead:=T pbc="F F F"
C      -44.02270000     -36.46460000     -70.32180000
C      -43.02320000     -35.86450000     -71.14090000
C      -42.29300000     -34.82820000     -70.60980000
C      -42.48190000     -34.33290000     -69.28680000
C      -43.40480000     -34.95350000     -68.46980000
C      -44.20940000     -36.02720000     -68.98050000
H      -44.73610000     -37.16550000     -70.81550000
H      -41.67420000     -34.14100000     -71.28720000
H      -43.68340000     -34.50710000     -67.51300000
H      -44.87680000     -36.71510000     -68.38320000
C      -41.92300000     -32.95770000     -68.95770000
H      -40.83160000     -32.87910000     -69.09700000
H      -42.07100000     -32.77100000     -67.87000000
C      -42.65600000     -36.43460000     -72.47900000
H      -41.61380000     -36.27000000     -72.71640000
H      -42.96360000     -37.43780000     -72.70610000
S      -42.54170000     -31.63040000     -70.16020000
S      -43.37490000     -35.39610000     -73.91620000
C      -44.41090000     -31.77490000     -69.99270000
H      -44.77330000     -32.83300000     -70.18320000
H      -44.72310000     -31.61710000     -68.96790000
C      -45.12590000     -35.11770000     -73.50990000
H      -45.67040000     -35.98440000     -73.16490000
H      -45.55850000     -34.95170000     -74.49770000
C      -45.39260000     -33.91260000     -72.59360000
H      -44.79930000     -34.13270000     -71.66450000
H      -45.06790000     -33.00760000     -73.12400000
C      -45.03190000     -30.83420000     -71.15140000
H      -44.52110000     -31.24390000     -72.04870000
H      -44.70800000     -29.85110000     -70.93740000
C      -46.49970000     -31.06270000     -71.30450000
C      -47.35180000     -30.03840000     -71.01850000
C      -47.22260000     -32.25170000     -71.75540000
H      -47.11870000     -29.04200000     -70.56230000
C      -48.60030000     -32.04810000     -71.70010000
C      -46.91220000     -33.55930000     -72.31110000
C      -47.99340000     -34.37410000     -72.49890000
S      -49.05500000     -30.41690000     -71.22260000
S      -49.43790000     -33.56270000     -72.04050000
H      -48.04160000     -35.41030000     -72.79280000
