40
Properties=species:S:1:pos:R:3 #=T CELL(abcABC):=T 1.889726e+02=T 90.00000=T Traj:=T positionsangstrom=T Step:=T 0=T Bead:=T pbc="F F F"
C      -44.10880000     -36.34650000     -69.81750000
C      -43.07490000     -35.89260000     -70.65070000
C      -42.25690000     -34.76270000     -70.30660000
C      -42.72270000     -33.93060000     -69.26560000
C      -43.76040000     -34.41370000     -68.44510000
C      -44.45550000     -35.56830000     -68.72470000
H      -44.61060000     -37.23700000     -69.96180000
H      -41.30610000     -34.44600000     -70.73480000
H      -44.11590000     -33.76610000     -67.60610000
H      -45.22040000     -35.79180000     -67.99570000
C      -42.11840000     -32.56930000     -69.10100000
H      -41.01060000     -32.61210000     -69.12130000
H      -42.29010000     -32.04330000     -68.15520000
C      -42.72690000     -36.62090000     -71.92210000
H      -41.66010000     -36.87000000     -72.02090000
H      -43.20780000     -37.59050000     -71.91930000
S      -42.64350000     -31.29840000     -70.32520000
S      -43.21910000     -35.80260000     -73.48650000
C      -44.46130000     -31.62780000     -70.28890000
H      -44.57910000     -32.66030000     -70.29640000
H      -44.82350000     -31.28240000     -69.27620000
C      -44.95830000     -35.23500000     -73.15620000
H      -45.32290000     -35.81850000     -72.33940000
H      -45.57200000     -35.55440000     -73.95250000
C      -45.25210000     -33.76920000     -73.01340000
H      -44.54260000     -33.27580000     -72.35100000
H      -45.20110000     -33.14590000     -73.94740000
C      -45.06230000     -30.87060000     -71.45840000
H      -44.63920000     -31.28490000     -72.34260000
H      -44.70400000     -29.80370000     -71.43110000
C      -46.55340000     -31.01530000     -71.59780000
C      -47.47650000     -30.11650000     -71.10900000
C      -47.14390000     -32.28820000     -72.03480000
H      -47.39270000     -29.16730000     -70.63600000
C      -48.49230000     -32.27770000     -71.85410000
C      -46.67400000     -33.55910000     -72.56000000
C      -47.71700000     -34.44020000     -72.74800000
S      -49.06500000     -30.75260000     -71.26750000
S      -49.29920000     -33.79480000     -72.30310000
H      -47.55760000     -35.43280000     -73.22030000
