40
Properties=species:S:1:pos:R:3 #=T CELL(abcABC):=T 1.889726e+02=T 90.00000=T Traj:=T positionsangstrom=T Step:=T 0=T Bead:=T pbc="F F F"
C      -49.03820000     -34.18190000     -70.49400000
C      -48.49240000     -33.05070000     -69.81790000
C      -47.44280000     -33.25200000     -68.85980000
C      -46.94280000     -34.51330000     -68.56220000
C      -47.50960000     -35.65670000     -69.28920000
C      -48.60810000     -35.47860000     -70.21770000
H      -49.90250000     -33.99730000     -71.15630000
H      -46.97230000     -32.39350000     -68.44080000
H      -47.05360000     -36.57270000     -69.07680000
H      -48.99470000     -36.40660000     -70.64700000
C      -45.93320000     -34.66620000     -67.51940000
H      -45.77740000     -35.76290000     -67.24010000
H      -46.20920000     -34.13350000     -66.61460000
C      -48.91440000     -31.68750000     -70.21090000
H      -49.53120000     -31.76390000     -71.16720000
H      -49.49730000     -31.26720000     -69.42100000
S      -44.28720000     -33.76230000     -67.96410000
S      -47.51940000     -30.49250000     -70.59710000
C      -43.81270000     -34.36450000     -69.59440000
H      -43.16840000     -35.26180000     -69.43850000
H      -44.60170000     -34.76210000     -70.14710000
C      -46.63890000     -31.18480000     -72.08330000
H      -45.95250000     -30.49710000     -72.48290000
H      -47.38950000     -31.31910000     -72.82120000
C      -46.00140000     -32.62230000     -71.85790000
H      -45.49080000     -32.66390000     -70.93600000
H      -46.77620000     -33.35760000     -71.80750000
C      -43.06780000     -33.20850000     -70.32710000
H      -42.20540000     -33.03890000     -69.75670000
H      -43.56260000     -32.23850000     -70.24750000
C      -42.73610000     -33.49870000     -71.83140000
C      -41.59030000     -34.04160000     -72.23540000
C      -43.70830000     -33.37850000     -72.90920000
H      -40.78590000     -34.10270000     -71.56570000
C      -43.16660000     -33.77410000     -74.08790000
C      -45.07090000     -32.97770000     -73.04790000
C      -45.54190000     -33.03920000     -74.31940000
S      -41.47590000     -34.27740000     -73.98240000
S      -44.22400000     -33.55760000     -75.43580000
H      -46.54630000     -32.87620000     -74.74700000
