40
Properties=species:S:1:pos:R:3 #=T CELL(abcABC):=T 1.889726e+02=T 90.00000=T Traj:=T positionsangstrom=T Step:=T 0=T Bead:=T pbc="F F F"
C      -43.70670000     -36.42520000     -69.75020000
C      -42.95060000     -35.80990000     -70.74880000
C      -42.34660000     -34.59550000     -70.50410000
C      -42.54650000     -33.92610000     -69.25730000
C      -43.30040000     -34.54330000     -68.27910000
C      -43.89020000     -35.78340000     -68.49680000
H      -44.08970000     -37.38120000     -69.99060000
H      -41.81130000     -34.19200000     -71.37690000
H      -43.50530000     -34.08450000     -67.28250000
H      -44.41870000     -36.24940000     -67.70780000
C      -42.02940000     -32.56450000     -69.02620000
H      -40.90850000     -32.62890000     -69.11620000
H      -42.21270000     -32.22340000     -67.95990000
C      -42.89540000     -36.55950000     -72.07200000
H      -41.78460000     -36.88790000     -72.14630000
H      -43.52170000     -37.54270000     -72.06360000
S      -42.61740000     -31.29250000     -70.23510000
S      -43.22800000     -35.65980000     -73.62560000
C      -44.40960000     -31.59140000     -70.19590000
H      -44.62130000     -32.62230000     -70.45190000
H      -44.98400000     -31.36730000     -69.22300000
C      -44.98770000     -34.99980000     -73.55680000
H      -45.66460000     -35.89970000     -73.40800000
H      -45.18830000     -34.55150000     -74.52960000
C      -45.23410000     -33.93760000     -72.44520000
H      -44.83940000     -34.34470000     -71.52780000
H      -44.58600000     -33.07900000     -72.66290000
C      -45.20170000     -30.83550000     -71.30570000
H      -44.75220000     -31.04670000     -72.32920000
H      -45.19630000     -29.74770000     -71.05870000
C      -46.64710000     -31.14770000     -71.40830000
C      -47.65460000     -30.30530000     -70.93820000
C      -47.24570000     -32.35810000     -71.88790000
H      -47.49420000     -29.32070000     -70.45560000
C      -48.67420000     -32.33090000     -71.85640000
C      -46.73670000     -33.60820000     -72.34240000
C      -47.74450000     -34.42320000     -72.83690000
S      -49.36020000     -30.81150000     -71.23930000
S      -49.34490000     -33.69170000     -72.73880000
H      -47.58020000     -35.49810000     -73.14950000
