40
Properties=species:S:1:pos:R:3 #=T CELL(abcABC):=T 1.889726e+02=T 90.00000=T Traj:=T positionsangstrom=T Step:=T 0=T Bead:=T pbc="F F F"
C      -48.67320000     -33.45490000     -72.97770000
C      -47.50040000     -34.13690000     -72.61140000
C      -46.34560000     -33.34410000     -72.71100000
C      -46.35470000     -32.13240000     -73.47530000
C      -47.49810000     -31.60730000     -73.96600000
C      -48.68370000     -32.25040000     -73.73350000
H      -49.64680000     -33.87010000     -72.80600000
H      -45.40450000     -33.72800000     -72.26920000
H      -47.61840000     -30.54920000     -74.37690000
H      -49.67890000     -31.72970000     -73.86690000
C      -45.06920000     -31.39030000     -73.52580000
H      -44.90510000     -30.94370000     -74.52150000
H      -44.20400000     -32.10750000     -73.47450000
C      -47.48400000     -35.40880000     -71.83140000
H      -48.13020000     -36.10260000     -72.36380000
H      -46.41860000     -35.71010000     -71.73650000
S      -44.93690000     -30.08090000     -72.12270000
S      -48.24250000     -35.25170000     -70.20060000
C      -45.66820000     -30.76770000     -70.54790000
H      -46.37010000     -30.00070000     -70.15240000
H      -46.25510000     -31.64830000     -70.91270000
C      -47.16740000     -33.89170000     -69.41700000
H      -47.85490000     -33.37560000     -68.74000000
H      -46.88290000     -33.24600000     -70.23900000
C      -45.96270000     -34.32280000     -68.72340000
H      -45.72010000     -33.49130000     -68.13310000
H      -46.18370000     -35.22050000     -68.05070000
C      -44.58060000     -31.33060000     -69.61360000
H      -45.12760000     -31.93810000     -68.87490000
H      -44.17070000     -30.53010000     -69.01990000
C      -43.68500000     -32.36130000     -70.32160000
C      -42.55780000     -32.07690000     -71.08430000
C      -43.79380000     -33.82430000     -70.15290000
H      -42.03590000     -31.08080000     -71.17560000
C      -42.77270000     -34.50790000     -70.74900000
C      -44.82000000     -34.70480000     -69.61420000
C      -44.56510000     -36.01860000     -69.97120000
S      -41.61690000     -33.48000000     -71.54750000
S      -43.05090000     -36.24090000     -70.79940000
H      -45.29840000     -36.80450000     -69.78720000
