40
Properties=species:S:1:pos:R:3 #=T CELL(abcABC):=T 1.889726e+02=T 90.00000=T Traj:=T positionsangstrom=T Step:=T 0=T Bead:=T pbc="F F F"
C      -44.35990000     -36.29320000     -69.82940000
C      -43.18020000     -36.00370000     -70.45750000
C      -42.49700000     -34.83070000     -70.25800000
C      -42.99350000     -33.95680000     -69.25380000
C      -44.30890000     -34.21810000     -68.68700000
C      -44.90190000     -35.50070000     -68.85580000
H      -44.86780000     -37.24160000     -70.21120000
H      -41.53150000     -34.65880000     -70.68820000
H      -44.63000000     -33.59500000     -67.88160000
H      -45.87730000     -35.71380000     -68.38060000
C      -42.29260000     -32.57500000     -69.08250000
H      -41.21470000     -32.70670000     -68.96980000
H      -42.66030000     -31.99630000     -68.22710000
C      -42.75630000     -36.83000000     -71.64220000
H      -41.70660000     -36.92930000     -71.62800000
H      -43.16710000     -37.84460000     -71.63460000
S      -42.50110000     -31.30800000     -70.52570000
S      -43.09970000     -36.00410000     -73.29590000
C      -44.26910000     -31.07710000     -70.38370000
H      -44.76730000     -31.99370000     -69.97690000
H      -44.49690000     -30.29190000     -69.74870000
C      -44.95300000     -35.49030000     -73.12310000
H      -45.41390000     -36.30980000     -72.62980000
H      -45.18720000     -35.38960000     -74.16540000
C      -45.20300000     -34.07560000     -72.50240000
H      -44.80830000     -34.00980000     -71.49390000
H      -44.72300000     -33.37810000     -73.11320000
C      -44.89150000     -30.79590000     -71.76160000
H      -44.46770000     -31.55130000     -72.41140000
H      -44.75790000     -29.90730000     -72.22590000
C      -46.37700000     -31.08580000     -71.63450000
C      -47.21320000     -30.11930000     -71.22390000
C      -47.04790000     -32.30230000     -72.01670000
H      -47.05920000     -29.09730000     -70.96250000
C      -48.44390000     -32.27240000     -71.84580000
C      -46.67180000     -33.61590000     -72.43700000
C      -47.74820000     -34.49840000     -72.65460000
S      -48.91030000     -30.51560000     -71.39520000
S      -49.26630000     -33.71840000     -72.32290000
H      -47.68920000     -35.60480000     -72.77220000
