40
Properties=species:S:1:pos:R:3 #=T CELL(abcABC):=T 1.889726e+02=T 90.00000=T Traj:=T positionsangstrom=T Step:=T 0=T Bead:=T pbc="F F F"
C      -48.65900000     -33.48910000     -73.06320000
C      -47.41570000     -33.90570000     -72.62110000
C      -46.39930000     -32.97290000     -72.33630000
C      -46.55760000     -31.63880000     -72.73970000
C      -47.85180000     -31.18980000     -73.21530000
C      -48.93270000     -32.12970000     -73.39280000
H      -49.32420000     -34.37920000     -73.20540000
H      -45.38560000     -33.25580000     -72.09930000
H      -47.92980000     -30.18730000     -73.54470000
H      -49.76730000     -31.75650000     -73.86660000
C      -45.45600000     -30.67830000     -72.58100000
H      -45.47740000     -29.90550000     -73.37040000
H      -44.39950000     -31.07880000     -72.53580000
C      -47.13250000     -35.32370000     -72.20750000
H      -47.70090000     -36.01480000     -72.89280000
H      -46.14410000     -35.74320000     -72.42210000
S      -45.60380000     -29.68850000     -71.03700000
S      -47.70980000     -35.72550000     -70.48420000
C      -45.45460000     -30.97170000     -69.69300000
H      -45.70320000     -30.46610000     -68.76470000
H      -46.26440000     -31.67600000     -69.82700000
C      -47.07300000     -34.36310000     -69.46080000
H      -47.81100000     -34.18030000     -68.70660000
H      -47.05500000     -33.42500000     -70.03360000
C      -45.65210000     -34.56810000     -68.84100000
H      -45.29640000     -33.66570000     -68.34170000
H      -45.77040000     -35.35400000     -68.08130000
C      -44.03450000     -31.55590000     -69.44830000
H      -44.04350000     -31.89690000     -68.47390000
H      -43.32980000     -30.74200000     -69.39040000
C      -43.49330000     -32.56770000     -70.44680000
C      -42.49970000     -32.15450000     -71.29730000
C      -43.75090000     -33.98340000     -70.48200000
H      -42.03580000     -31.19070000     -71.33670000
C      -42.86820000     -34.62190000     -71.37130000
C      -44.63290000     -34.90990000     -69.87470000
C      -44.45730000     -36.15150000     -70.39020000
S      -41.86290000     -33.48010000     -72.27210000
S      -43.10430000     -36.29630000     -71.57820000
H      -44.93340000     -37.04740000     -69.93910000
