40
Properties=species:S:1:pos:R:3 #=T CELL(abcABC):=T 1.889726e+02=T 90.00000=T Traj:=T positionsangstrom=T Step:=T 0=T Bead:=T pbc="F F F"
C      -44.64870000     -35.18080000     -67.86730000
C      -43.86790000     -35.38270000     -68.99990000
C      -43.05700000     -34.37100000     -69.43950000
C      -42.94690000     -33.16170000     -68.74350000
C      -43.85190000     -32.92200000     -67.73080000
C      -44.71530000     -33.90750000     -67.30290000
H      -45.24000000     -35.99010000     -67.55040000
H      -42.48910000     -34.48190000     -70.29550000
H      -43.83600000     -32.04150000     -67.10240000
H      -45.35420000     -33.69690000     -66.37040000
C      -41.90190000     -32.15250000     -69.13570000
H      -40.81200000     -32.35460000     -68.89860000
H      -42.20770000     -31.16820000     -68.71780000
C      -43.91130000     -36.75150000     -69.62410000
H      -43.10640000     -37.39020000     -69.20410000
H      -44.88970000     -37.27270000     -69.47310000
S      -42.21160000     -31.82050000     -70.99920000
S      -43.72650000     -36.79030000     -71.49200000
C      -44.04790000     -31.66620000     -71.06830000
H      -44.62490000     -32.49580000     -70.56390000
H      -44.29350000     -30.72700000     -70.50770000
C      -45.36720000     -36.21220000     -72.19210000
H      -46.23740000     -36.50600000     -71.59540000
H      -45.42130000     -36.49210000     -73.21170000
C      -45.44020000     -34.62520000     -72.18140000
H      -45.39810000     -34.35310000     -71.13490000
H      -44.54170000     -34.18540000     -72.68550000
C      -44.50960000     -31.55020000     -72.55350000
H      -44.10230000     -32.33630000     -73.18210000
H      -44.06320000     -30.62060000     -72.89340000
C      -46.03320000     -31.36390000     -72.74030000
C      -46.67620000     -30.20880000     -73.07320000
C      -46.84520000     -32.48620000     -72.83880000
H      -46.21730000     -29.23040000     -73.16530000
C      -48.20770000     -32.17530000     -73.11730000
C      -46.70130000     -33.94380000     -72.65570000
C      -47.87520000     -34.68240000     -72.79300000
S      -48.34700000     -30.40480000     -73.47360000
S      -49.24670000     -33.61360000     -73.16540000
H      -48.09800000     -35.74520000     -72.77350000
