40
Properties=species:S:1:pos:R:3 #=T CELL(abcABC):=T 1.889726e+02=T 90.00000=T Traj:=T positionsangstrom=T Step:=T 0=T Bead:=T pbc="F F F"
C      -44.75140000     -35.57730000     -68.45610000
C      -43.71190000     -35.72050000     -69.39720000
C      -42.86590000     -34.64040000     -69.64150000
C      -43.02070000     -33.44030000     -68.92320000
C      -44.02250000     -33.31010000     -67.92840000
C      -44.88270000     -34.41580000     -67.66040000
H      -45.39190000     -36.35530000     -68.06530000
H      -41.93720000     -34.80140000     -70.22690000
H      -44.04440000     -32.42920000     -67.22360000
H      -45.57120000     -34.31230000     -66.82680000
C      -41.97610000     -32.40880000     -69.16810000
H      -40.97140000     -32.78250000     -69.23940000
H      -41.96340000     -31.67420000     -68.31070000
C      -43.46240000     -37.02370000     -70.15920000
H      -42.50490000     -37.48920000     -69.92210000
H      -44.33930000     -37.69330000     -69.99130000
S      -42.31560000     -31.35280000     -70.62830000
S      -43.54430000     -36.66550000     -71.96000000
C      -44.13920000     -31.36940000     -70.76820000
H      -44.49800000     -32.36360000     -70.30350000
H      -44.63370000     -30.46190000     -70.30010000
C      -45.26130000     -36.22320000     -72.33030000
H      -45.87260000     -36.76440000     -71.57080000
H      -45.67890000     -36.58910000     -73.27190000
C      -45.42840000     -34.65750000     -72.24640000
H      -45.00390000     -34.35160000     -71.31900000
H      -44.75390000     -34.29020000     -72.99240000
C      -44.56230000     -31.24520000     -72.27150000
H      -44.08770000     -32.03440000     -72.87390000
H      -44.13170000     -30.32760000     -72.68350000
C      -46.07210000     -31.29720000     -72.43840000
C      -46.72860000     -30.11170000     -72.55600000
C      -46.87250000     -32.52000000     -72.67650000
H      -46.33960000     -29.12520000     -72.67570000
C      -48.18810000     -32.12550000     -73.05830000
C      -46.74800000     -33.97890000     -72.56760000
C      -47.98560000     -34.53770000     -72.83670000
S      -48.42580000     -30.35440000     -73.00780000
S      -49.25710000     -33.48330000     -73.10450000
H      -47.96720000     -35.68600000     -72.96500000
