40
Properties=species:S:1:pos:R:3 #=T CELL(abcABC):=T 1.889726e+02=T 90.00000=T Traj:=T positionsangstrom=T Step:=T 0=T Bead:=T pbc="F F F"
C      -48.69180000     -33.55410000     -73.16850000
C      -47.51950000     -34.13280000     -72.59770000
C      -46.41120000     -33.21810000     -72.50960000
C      -46.44180000     -31.90440000     -72.99890000
C      -47.57940000     -31.55020000     -73.77160000
C      -48.68490000     -32.32980000     -73.79170000
H      -49.60490000     -34.08040000     -73.20410000
H      -45.50910000     -33.57110000     -71.93330000
H      -47.63480000     -30.52430000     -74.17990000
H      -49.59750000     -32.03600000     -74.38770000
C      -45.26420000     -30.97470000     -72.95060000
H      -45.24630000     -30.27620000     -73.74680000
H      -44.39560000     -31.56570000     -73.10200000
C      -47.53270000     -35.52520000     -72.02950000
H      -48.27630000     -36.15620000     -72.52500000
H      -46.54500000     -35.94930000     -72.27980000
S      -45.23260000     -29.79660000     -71.48910000
S      -47.99750000     -35.55600000     -70.13170000
C      -45.43980000     -30.81270000     -70.02440000
H      -45.72980000     -30.13250000     -69.24630000
H      -46.17780000     -31.54880000     -70.14420000
C      -47.16410000     -34.00330000     -69.48650000
H      -47.83340000     -33.45210000     -68.89420000
H      -47.03590000     -33.41810000     -70.38430000
C      -45.84170000     -34.24950000     -68.77950000
H      -45.53740000     -33.34230000     -68.38910000
H      -45.99630000     -35.03010000     -67.95080000
C      -44.17560000     -31.45420000     -69.41330000
H      -44.45920000     -31.77100000     -68.37360000
H      -43.48680000     -30.68360000     -69.12580000
C      -43.38610000     -32.47360000     -70.21990000
C      -42.29830000     -32.11460000     -71.03420000
C      -43.63410000     -33.92160000     -70.27070000
H      -41.75870000     -31.13700000     -70.96340000
C      -42.83520000     -34.55950000     -71.20060000
C      -44.74200000     -34.71020000     -69.76360000
C      -44.65780000     -35.96500000     -70.28100000
S      -41.65040000     -33.52140000     -71.91610000
S      -43.35110000     -36.22930000     -71.45440000
H      -45.36200000     -36.74800000     -70.20390000
