40
Properties=species:S:1:pos:R:3 #=T CELL(abcABC):=T 1.889726e+02=T 90.00000=T Traj:=T positionsangstrom=T Step:=T 0=T Bead:=T pbc="F F F"
C      -44.95380000     -35.73330000     -68.27750000
C      -44.90160000     -36.23110000     -69.59980000
C      -46.04850000     -36.08650000     -70.39030000
C      -47.25940000     -35.59750000     -69.80180000
C      -47.25500000     -35.13590000     -68.47690000
C      -46.10680000     -35.12740000     -67.72770000
H      -43.93900000     -35.72490000     -67.69170000
H      -46.14670000     -36.40100000     -71.43020000
H      -48.17470000     -34.78580000     -68.03380000
H      -46.06160000     -34.59090000     -66.65690000
C      -48.55860000     -35.52060000     -70.46520000
H      -49.06800000     -34.70030000     -70.08530000
H      -48.97820000     -36.45700000     -70.24810000
C      -43.59690000     -36.72240000     -70.20950000
H      -43.29310000     -37.84190000     -69.94360000
H      -43.93830000     -36.93650000     -71.24800000
S      -48.49720000     -35.46260000     -72.31380000
S      -42.17230000     -35.55610000     -70.20660000
C      -48.01220000     -33.69990000     -72.62610000
H      -48.33900000     -33.41650000     -73.69800000
H      -48.61420000     -33.10330000     -71.93720000
C      -42.96520000     -33.95000000     -70.76600000
H      -42.21160000     -33.21780000     -70.36170000
H      -43.93360000     -33.80330000     -70.26600000
C      -43.15460000     -33.64180000     -72.25080000
H      -42.25170000     -33.87770000     -72.82590000
H      -44.02140000     -34.24740000     -72.59760000
C      -46.57360000     -33.43830000     -72.43070000
H      -45.95770000     -33.98010000     -73.15680000
H      -46.42790000     -33.87860000     -71.46790000
C      -46.15500000     -32.00750000     -72.45980000
C      -47.05730000     -30.92480000     -72.34520000
C      -44.79930000     -31.53770000     -72.39310000
H      -48.11880000     -31.00310000     -72.48950000
C      -44.74420000     -30.16310000     -72.46220000
C      -43.44700000     -32.14110000     -72.39970000
C      -42.47310000     -31.20160000     -72.50570000
S      -46.29160000     -29.40140000     -72.42440000
S      -43.14980000     -29.53060000     -72.63500000
H      -41.42250000     -31.45070000     -72.43900000
