40
Properties=species:S:1:pos:R:3 #=T CELL(abcABC):=T 1.889726e+02=T 90.00000=T Traj:=T positionsangstrom=T Step:=T 0=T Bead:=T pbc="F F F"
C      -49.24450000     -33.09380000     -72.30930000
C      -47.98040000     -33.73300000     -72.29110000
C      -46.84810000     -32.98770000     -71.99380000
C      -46.92290000     -31.68040000     -71.58520000
C      -48.22000000     -31.02910000     -71.53460000
C      -49.34980000     -31.74590000     -71.91020000
H      -50.17380000     -33.69160000     -72.46680000
H      -45.87920000     -33.36060000     -72.12540000
H      -48.32340000     -29.96090000     -71.09900000
H      -50.36770000     -31.36290000     -71.90500000
C      -45.66380000     -30.81650000     -71.34150000
H      -45.74010000     -29.84370000     -71.91440000
H      -44.69810000     -31.35280000     -71.59850000
C      -47.80430000     -35.22990000     -72.57210000
H      -48.66550000     -35.61400000     -73.19480000
H      -46.97500000     -35.40340000     -73.22780000
S      -45.51040000     -30.31430000     -69.44680000
S      -47.54530000     -36.36030000     -71.09060000
C      -45.29410000     -31.96980000     -68.71490000
H      -45.50230000     -31.79250000     -67.60880000
H      -46.02240000     -32.61230000     -69.09060000
C      -46.45150000     -35.46850000     -69.89500000
H      -46.72050000     -35.66400000     -68.78000000
H      -46.71350000     -34.40830000     -69.97400000
C      -44.97920000     -35.88030000     -70.07510000
H      -44.48700000     -35.70780000     -69.10070000
H      -45.04540000     -36.91730000     -70.24670000
C      -43.89040000     -32.69720000     -68.78210000
H      -43.97000000     -33.67810000     -68.26250000
H      -43.20450000     -32.04770000     -68.18830000
C      -43.23130000     -32.87410000     -70.17700000
C      -42.24400000     -32.02590000     -70.66620000
C      -43.50440000     -33.91590000     -71.12410000
H      -42.03980000     -30.99510000     -70.28210000
C      -42.91960000     -33.67090000     -72.38300000
C      -44.17530000     -35.16880000     -71.18980000
C      -43.98150000     -35.91270000     -72.31530000
S      -41.86770000     -32.29960000     -72.41010000
S      -43.18520000     -34.90750000     -73.55600000
H      -44.74800000     -36.71860000     -72.76000000
