40
Properties=species:S:1:pos:R:3 #=T CELL(abcABC):=T 1.889726e+02=T 90.00000=T Traj:=T positionsangstrom=T Step:=T 0=T Bead:=T pbc="F F F"
C      -49.12160000     -33.43420000     -72.25260000
C      -47.81170000     -33.72670000     -72.44730000
C      -46.79330000     -32.86540000     -71.98830000
C      -47.11130000     -31.68460000     -71.37410000
C      -48.44450000     -31.36770000     -71.20970000
C      -49.48620000     -32.22240000     -71.59430000
H      -49.85720000     -34.11150000     -72.67840000
H      -45.70800000     -33.12760000     -72.17670000
H      -48.65610000     -30.45840000     -70.77060000
H      -50.48730000     -31.85460000     -71.50500000
C      -46.02850000     -30.77150000     -70.94380000
H      -46.31900000     -29.69120000     -71.15440000
H      -45.12110000     -30.98290000     -71.51780000
C      -47.36130000     -35.04050000     -72.89450000
H      -47.97740000     -35.46530000     -73.72300000
H      -46.32920000     -35.04650000     -73.25960000
S      -45.69420000     -30.67500000     -69.12010000
S      -47.44470000     -36.35090000     -71.57020000
C      -45.28790000     -32.42680000     -68.63150000
H      -45.46530000     -32.43660000     -67.54010000
H      -46.06160000     -33.03280000     -69.09970000
C      -46.42510000     -35.64590000     -70.13120000
H      -46.66060000     -36.23770000     -69.28450000
H      -46.77970000     -34.61710000     -69.92680000
C      -44.92630000     -35.84130000     -70.25430000
H      -44.49150000     -35.55890000     -69.24410000
H      -44.62510000     -36.87410000     -70.48790000
C      -43.79480000     -32.76680000     -68.72910000
H      -43.59930000     -33.76730000     -68.23540000
H      -43.23310000     -32.08370000     -68.07760000
C      -43.17440000     -32.83290000     -70.11420000
C      -42.47270000     -31.74550000     -70.62980000
C      -43.51470000     -33.81040000     -71.14590000
H      -42.10040000     -30.96530000     -69.96650000
C      -42.83630000     -33.48120000     -72.33880000
C      -44.23140000     -35.09670000     -71.33600000
C      -44.11640000     -35.57990000     -72.59840000
S      -41.87680000     -32.03590000     -72.26190000
S      -43.04290000     -34.60110000     -73.65090000
H      -44.61380000     -36.53240000     -72.94530000
