40
Properties=species:S:1:pos:R:3 #=T CELL(abcABC):=T 1.889726e+02=T 90.00000=T Traj:=T positionsangstrom=T Step:=T 0=T Bead:=T pbc="F F F"
C      -44.93480000     -35.63030000     -68.30660000
C      -44.95760000     -36.06070000     -69.61360000
C      -46.13790000     -36.00550000     -70.40690000
C      -47.32680000     -35.63840000     -69.79720000
C      -47.33360000     -35.29800000     -68.42220000
C      -46.15630000     -35.18250000     -67.71300000
H      -44.01100000     -35.61740000     -67.70650000
H      -46.11750000     -36.28450000     -71.54840000
H      -48.31310000     -35.08250000     -67.95550000
H      -46.17580000     -34.83240000     -66.57770000
C      -48.62540000     -35.65590000     -70.64830000
H      -49.43140000     -34.95930000     -70.25840000
H      -49.13620000     -36.68580000     -70.45390000
C      -43.71710000     -36.61490000     -70.34280000
H      -43.28590000     -37.32970000     -69.73740000
H      -43.89740000     -36.85540000     -71.33040000
S      -48.54670000     -35.52730000     -72.46940000
S      -42.12230000     -35.52420000     -70.25830000
C      -48.10230000     -33.69610000     -72.60180000
H      -48.41810000     -33.43660000     -73.59200000
H      -48.62030000     -32.98920000     -71.97050000
C      -42.78000000     -33.82360000     -70.46310000
H      -41.91350000     -33.26160000     -70.32590000
H      -43.43640000     -33.49880000     -69.68320000
C      -43.23210000     -33.62760000     -71.91870000
H      -42.51480000     -34.02040000     -72.64190000
H      -44.14040000     -34.23650000     -72.03610000
C      -46.65100000     -33.42090000     -72.29890000
H      -46.01340000     -34.01080000     -73.02640000
H      -46.31100000     -33.80320000     -71.31830000
C      -46.17400000     -31.97990000     -72.45930000
C      -47.05130000     -30.88810000     -72.41650000
C      -44.81770000     -31.53730000     -72.37360000
H      -48.09930000     -30.98850000     -72.50000000
C      -44.66600000     -30.17300000     -72.53430000
C      -43.49520000     -32.19240000     -72.24650000
C      -42.49970000     -31.26370000     -72.40350000
S      -46.17140000     -29.35860000     -72.58060000
S      -43.03500000     -29.60360000     -72.55220000
H      -41.44750000     -31.56640000     -72.38850000
