40
Properties=species:S:1:pos:R:3 #=T CELL(abcABC):=T 1.889726e+02=T 90.00000=T Traj:=T positionsangstrom=T Step:=T 0=T Bead:=T pbc="F F F"
C      -44.87600000     -35.13430000     -67.76650000
C      -43.98780000     -35.53760000     -68.77810000
C      -42.96170000     -34.65140000     -69.15240000
C      -42.93450000     -33.30240000     -68.77210000
C      -43.83980000     -32.98300000     -67.74130000
C      -44.66490000     -33.92550000     -67.12990000
H      -45.61740000     -35.78380000     -67.34130000
H      -42.27140000     -34.98760000     -69.82910000
H      -43.89810000     -32.01760000     -67.29250000
H      -45.32450000     -33.66470000     -66.30840000
C      -41.97580000     -32.24080000     -69.29910000
H      -40.96380000     -32.74550000     -69.26840000
H      -42.00350000     -31.40830000     -68.66360000
C      -44.13130000     -36.86650000     -69.51500000
H      -43.36910000     -37.47770000     -69.06740000
H      -45.01990000     -37.47010000     -69.34590000
S      -42.14400000     -31.75100000     -71.08710000
S      -43.78860000     -36.67260000     -71.33510000
C      -44.03260000     -31.29720000     -71.30100000
H      -44.48530000     -32.09210000     -70.76980000
H      -44.25530000     -30.36020000     -70.74370000
C      -45.47050000     -36.01080000     -71.89780000
H      -46.11860000     -36.22390000     -71.05300000
H      -45.88830000     -36.73080000     -72.69040000
C      -45.34930000     -34.55300000     -72.26490000
H      -44.89030000     -33.98470000     -71.45650000
H      -44.66250000     -34.43710000     -73.09380000
C      -44.42750000     -31.35330000     -72.80000000
H      -43.98360000     -32.23750000     -73.23660000
H      -44.06640000     -30.44810000     -73.31860000
C      -45.94850000     -31.42240000     -72.97820000
C      -46.59630000     -30.28430000     -73.33390000
C      -46.80790000     -32.55070000     -72.83800000
H      -46.09860000     -29.25850000     -73.44590000
C      -48.15920000     -32.20530000     -73.19400000
C      -46.66940000     -33.97240000     -72.56200000
C      -47.86400000     -34.64330000     -72.64450000
S      -48.34880000     -30.56250000     -73.55350000
S      -49.21470000     -33.57460000     -73.17910000
H      -48.05430000     -35.67140000     -72.67540000
