40
Properties=species:S:1:pos:R:3 #=T CELL(abcABC):=T 1.889726e+02=T 90.00000=T Traj:=T positionsangstrom=T Step:=T 0=T Bead:=T pbc="F F F"
C      -49.24580000     -33.18270000     -72.17870000
C      -47.93240000     -33.69890000     -72.22050000
C      -46.86220000     -32.88720000     -71.93870000
C      -46.99140000     -31.53400000     -71.67230000
C      -48.31380000     -30.98910000     -71.63650000
C      -49.42580000     -31.79460000     -71.88250000
H      -50.15580000     -33.75300000     -72.42780000
H      -45.88130000     -33.39180000     -71.96500000
H      -48.41150000     -29.89790000     -71.50910000
H      -50.44950000     -31.34780000     -71.88530000
C      -45.81870000     -30.78400000     -71.17800000
H      -45.90970000     -29.73580000     -71.51230000
H      -44.97410000     -31.11540000     -71.66790000
C      -47.78420000     -35.09720000     -72.64430000
H      -48.70810000     -35.40990000     -73.11190000
H      -46.97020000     -35.24360000     -73.40790000
S      -45.53080000     -30.70030000     -69.39100000
S      -47.59020000     -36.26660000     -71.19610000
C      -45.25470000     -32.37870000     -68.61190000
H      -45.58300000     -32.18850000     -67.59020000
H      -45.90330000     -33.09850000     -69.15120000
C      -46.39100000     -35.51400000     -70.01250000
H      -46.64100000     -35.89330000     -69.11790000
H      -46.57950000     -34.49270000     -70.08090000
C      -44.87380000     -35.81800000     -70.11620000
H      -44.45650000     -35.60180000     -69.11030000
H      -44.62720000     -36.90630000     -70.21050000
C      -43.71650000     -32.75600000     -68.69840000
H      -43.48630000     -33.66400000     -68.16160000
H      -43.14300000     -31.89820000     -68.30980000
C      -43.15590000     -32.93570000     -70.10660000
C      -42.36570000     -31.92710000     -70.62920000
C      -43.35020000     -33.98090000     -71.10830000
H      -42.18540000     -30.99990000     -70.15340000
C      -42.80740000     -33.63580000     -72.35350000
C      -44.20230000     -35.13630000     -71.25170000
C      -44.18540000     -35.65190000     -72.50840000
S      -41.87160000     -32.18770000     -72.29950000
S      -43.13930000     -34.79730000     -73.64860000
H      -44.80500000     -36.62030000     -72.78140000
