40
Properties=species:S:1:pos:R:3 #=T CELL(abcABC):=T 1.889726e+02=T 90.00000=T Traj:=T positionsangstrom=T Step:=T 0=T Bead:=T pbc="F F F"
C      -44.82460000     -35.11760000     -67.76680000
C      -43.96400000     -35.45580000     -68.79930000
C      -43.09160000     -34.45950000     -69.29510000
C      -43.04850000     -33.19300000     -68.77780000
C      -43.91140000     -32.92540000     -67.68950000
C      -44.73580000     -33.89380000     -67.15340000
H      -45.55520000     -35.81590000     -67.33270000
H      -42.42500000     -34.79960000     -70.02610000
H      -43.83310000     -31.96930000     -67.22350000
H      -45.28910000     -33.73410000     -66.30450000
C      -41.99310000     -32.26760000     -69.27070000
H      -41.08770000     -32.84610000     -69.32190000
H      -41.61480000     -31.44670000     -68.67370000
C      -43.99200000     -36.84100000     -69.37030000
H      -43.09470000     -37.40260000     -69.02250000
H      -44.91380000     -37.32030000     -69.03700000
S      -42.33200000     -31.82630000     -71.07260000
S      -43.91470000     -36.98780000     -71.21070000
C      -44.08050000     -31.22080000     -71.28230000
H      -44.73850000     -31.71280000     -70.53820000
H      -44.26650000     -30.13210000     -71.16740000
C      -45.40420000     -36.05970000     -71.69350000
H      -46.09280000     -36.18720000     -70.84140000
H      -45.91960000     -36.62590000     -72.48630000
C      -45.27440000     -34.60970000     -72.15460000
H      -44.90860000     -34.01980000     -71.27400000
H      -44.51580000     -34.54860000     -72.93060000
C      -44.38680000     -31.44130000     -72.78400000
H      -43.99180000     -32.44260000     -73.10110000
H      -43.77360000     -30.70240000     -73.38170000
C      -45.85740000     -31.39370000     -73.16590000
C      -46.58410000     -30.26540000     -73.43520000
C      -46.70710000     -32.53360000     -73.01100000
H      -46.25160000     -29.22140000     -73.64550000
C      -48.01460000     -32.16610000     -73.34760000
C      -46.60120000     -33.95050000     -72.60890000
C      -47.83280000     -34.51650000     -72.64920000
S      -48.26560000     -30.55500000     -73.70420000
S      -49.15010000     -33.44310000     -73.09040000
H      -48.09070000     -35.50530000     -72.32570000
