40
Properties=species:S:1:pos:R:3 #=T CELL(abcABC):=T 1.889726e+02=T 90.00000=T Traj:=T positionsangstrom=T Step:=T 0=T Bead:=T pbc="F F F"
C      -48.25810000     -34.74030000     -73.82620000
C      -47.35160000     -33.66090000     -74.18730000
C      -47.32790000     -32.44640000     -73.45440000
C      -48.03290000     -32.18050000     -72.31200000
C      -48.93890000     -33.22190000     -71.93720000
C      -49.06980000     -34.38690000     -72.71850000
H      -48.28930000     -35.70380000     -74.35090000
H      -46.66810000     -31.71600000     -73.79550000
H      -49.62480000     -33.11980000     -71.18020000
H      -49.82280000     -35.13030000     -72.37720000
C      -47.95600000     -30.85000000     -71.62890000
H      -48.88410000     -30.41700000     -71.38510000
H      -47.45390000     -30.20870000     -72.39120000
C      -46.37070000     -33.73330000     -75.30720000
H      -46.45880000     -34.71080000     -75.86170000
H      -46.55230000     -32.99700000     -76.08090000
S      -47.08590000     -30.53260000     -70.05260000
S      -44.63630000     -33.46100000     -74.79170000
C      -45.26640000     -30.37200000     -70.57210000
H      -45.30510000     -29.76310000     -71.53740000
H      -44.81790000     -29.74870000     -69.81790000
C      -44.19730000     -34.41890000     -73.23330000
H      -44.12110000     -35.44180000     -73.56090000
H      -44.96420000     -34.35870000     -72.43300000
C      -42.82280000     -34.00880000     -72.60200000
H      -41.99900000     -34.50720000     -73.14600000
H      -42.66530000     -32.96530000     -72.53200000
C      -44.51060000     -31.70500000     -70.86640000
H      -43.46760000     -31.48120000     -71.15450000
H      -44.99400000     -32.18700000     -71.68580000
C      -44.42010000     -32.71590000     -69.78190000
C      -44.76390000     -32.58660000     -68.45960000
C      -43.60970000     -33.91840000     -70.05090000
H      -45.25370000     -31.68070000     -68.04830000
C      -43.39600000     -34.61910000     -68.91410000
C      -42.99640000     -34.57580000     -71.16390000
C      -42.59440000     -35.81190000     -70.78980000
S      -44.16940000     -33.94960000     -67.45460000
S      -42.71380000     -36.18800000     -69.13230000
H      -41.91680000     -36.42880000     -71.42770000
