40
Properties=species:S:1:pos:R:3 #=T CELL(abcABC):=T 1.889726e+02=T 90.00000=T Traj:=T positionsangstrom=T Step:=T 0=T Bead:=T pbc="F F F"
C      -48.96380000     -34.15510000     -70.37610000
C      -48.38100000     -33.09210000     -69.65250000
C      -47.34640000     -33.39140000     -68.67500000
C      -47.05660000     -34.73220000     -68.43290000
C      -47.67700000     -35.78000000     -69.15860000
C      -48.66830000     -35.50760000     -70.08370000
H      -49.68260000     -33.98390000     -71.14050000
H      -46.83120000     -32.58590000     -68.18120000
H      -47.29980000     -36.80780000     -68.99400000
H      -49.02340000     -36.33510000     -70.59380000
C      -45.88890000     -35.06690000     -67.53130000
H      -45.63500000     -36.10910000     -67.69360000
H      -46.16460000     -34.94580000     -66.45960000
C      -48.73610000     -31.65150000     -69.96800000
H      -49.60920000     -31.73830000     -70.67140000
H      -49.16740000     -31.16510000     -69.08420000
S      -44.34810000     -34.02730000     -67.81580000
S      -47.38280000     -30.71460000     -70.70950000
C      -43.90750000     -34.44080000     -69.61130000
H      -43.11750000     -35.20120000     -69.77220000
H      -44.80430000     -34.85200000     -70.01720000
C      -47.01570000     -31.32880000     -72.37660000
H      -46.30330000     -30.57940000     -72.79360000
H      -47.90250000     -31.28350000     -73.06380000
C      -46.35880000     -32.75540000     -72.45010000
H      -46.13020000     -33.11740000     -71.43520000
H      -47.04780000     -33.53760000     -72.81390000
C      -43.59150000     -33.17620000     -70.35380000
H      -42.88860000     -32.61080000     -69.81840000
H      -44.48340000     -32.52060000     -70.36300000
C      -43.05770000     -33.43640000     -71.76480000
C      -41.74080000     -33.87850000     -71.96760000
C      -43.78330000     -33.11630000     -72.98050000
H      -40.86220000     -34.06690000     -71.33020000
C      -42.96430000     -33.37220000     -74.07130000
C      -45.17110000     -32.91410000     -73.34820000
C      -45.29560000     -32.82770000     -74.71920000
S      -41.35910000     -34.09480000     -73.70580000
S      -43.81190000     -33.18970000     -75.59770000
H      -46.16050000     -32.43790000     -75.22300000
