40
Properties=species:S:1:pos:R:3 #=T CELL(abcABC):=T 1.889726e+02=T 90.00000=T Traj:=T positionsangstrom=T Step:=T 0=T Bead:=T pbc="F F F"
C      -47.66000000     -34.27870000     -73.56300000
C      -47.10800000     -33.10640000     -74.10650000
C      -47.19480000     -31.85820000     -73.41090000
C      -47.82060000     -31.89040000     -72.15200000
C      -48.28620000     -33.07780000     -71.62800000
C      -48.37880000     -34.29010000     -72.36300000
H      -47.49070000     -35.16180000     -74.22570000
H      -46.59810000     -30.94950000     -73.72200000
H      -48.60310000     -32.97120000     -70.60850000
H      -48.77130000     -35.18720000     -71.82720000
C      -47.85420000     -30.57510000     -71.34590000
H      -48.86730000     -30.10450000     -71.19180000
H      -47.35900000     -29.84220000     -72.01630000
C      -46.39630000     -33.02190000     -75.38420000
H      -46.83490000     -33.75170000     -76.08330000
H      -46.36500000     -32.04030000     -75.87010000
S      -46.95670000     -30.59060000     -69.75890000
S      -44.64020000     -33.50150000     -75.02380000
C      -45.22870000     -30.42800000     -70.36810000
H      -45.21350000     -29.75310000     -71.21250000
H      -44.71630000     -29.98000000     -69.50760000
C      -44.47430000     -34.63110000     -73.52860000
H      -44.38810000     -35.68260000     -73.80890000
H      -45.33840000     -34.69820000     -72.94450000
C      -43.31200000     -34.11990000     -72.75980000
H      -42.43210000     -34.40930000     -73.45350000
H      -43.36260000     -32.98100000     -72.68240000
C      -44.50550000     -31.67850000     -70.78620000
H      -43.51010000     -31.27950000     -70.91290000
H      -44.86230000     -32.12650000     -71.74490000
C      -44.36400000     -32.81440000     -69.76330000
C      -44.64080000     -32.75280000     -68.39880000
C      -43.79140000     -34.08560000     -70.09020000
H      -45.22300000     -31.96960000     -67.89830000
C      -43.80850000     -34.98280000     -69.02720000
C      -43.23460000     -34.67280000     -71.32710000
C      -42.71510000     -35.88280000     -71.03440000
S      -44.51670000     -34.32270000     -67.58860000
S      -42.93720000     -36.48710000     -69.39040000
H      -42.37580000     -36.67790000     -71.69830000
