40
Properties=species:S:1:pos:R:3 #=T CELL(abcABC):=T 1.889726e+02=T 90.00000=T Traj:=T positionsangstrom=T Step:=T 0=T Bead:=T pbc="F F F"
C      -48.92280000     -33.63120000     -71.96700000
C      -47.63050000     -33.67680000     -72.44350000
C      -46.73820000     -32.68350000     -72.09690000
C      -47.16080000     -31.70660000     -71.17800000
C      -48.50370000     -31.61350000     -70.73740000
C      -49.44470000     -32.53460000     -71.20180000
H      -49.62560000     -34.47060000     -72.19250000
H      -45.71210000     -32.57130000     -72.45660000
H      -48.76540000     -30.89400000     -70.06290000
H      -50.40090000     -32.68300000     -70.74500000
C      -46.16010000     -30.62000000     -70.81210000
H      -46.58070000     -29.65840000     -70.92490000
H      -45.32340000     -30.75260000     -71.38260000
C      -47.19990000     -34.84370000     -73.24660000
H      -47.93290000     -35.14560000     -73.98330000
H      -46.30410000     -34.66080000     -73.75910000
S      -45.85590000     -30.68220000     -68.98940000
S      -46.97590000     -36.39430000     -72.11040000
C      -45.34230000     -32.44430000     -68.79400000
H      -45.81970000     -32.83570000     -67.91560000
H      -45.71580000     -32.99770000     -69.62350000
C      -46.47730000     -35.78690000     -70.47210000
H      -46.93380000     -36.45180000     -69.80310000
H      -46.92660000     -34.84040000     -70.27100000
C      -45.00010000     -35.79290000     -70.17990000
H      -44.81160000     -35.37890000     -69.14320000
H      -44.66950000     -36.81400000     -70.22760000
C      -43.87400000     -32.70090000     -68.74200000
H      -43.73620000     -33.68130000     -68.25100000
H      -43.30780000     -32.06890000     -68.08390000
C      -43.32020000     -32.70770000     -70.13440000
C      -42.47560000     -31.71700000     -70.58870000
C      -43.56880000     -33.76590000     -71.08290000
H      -42.26090000     -30.85760000     -69.94120000
C      -42.96520000     -33.41340000     -72.33850000
C      -44.23160000     -35.04260000     -71.23720000
C      -43.98590000     -35.68910000     -72.45540000
S      -42.07340000     -31.89030000     -72.26360000
S      -43.09820000     -34.66400000     -73.57770000
H      -44.26150000     -36.74490000     -72.86210000
