40
Properties=species:S:1:pos:R:3 #=T CELL(abcABC):=T 1.889726e+02=T 90.00000=T Traj:=T positionsangstrom=T Step:=T 0=T Bead:=T pbc="F F F"
C      -49.06260000     -34.20120000     -70.30120000
C      -48.39630000     -33.12160000     -69.68740000
C      -47.48000000     -33.38200000     -68.65560000
C      -47.13490000     -34.70190000     -68.47330000
C      -47.65970000     -35.80290000     -69.19500000
C      -48.76480000     -35.48550000     -70.04270000
H      -49.80930000     -33.88730000     -71.01240000
H      -46.91570000     -32.66950000     -68.09380000
H      -47.33520000     -36.76320000     -69.08610000
H      -49.25810000     -36.22140000     -70.65580000
C      -46.02180000     -34.99510000     -67.44310000
H      -45.78640000     -36.08780000     -67.45130000
H      -46.20510000     -34.67800000     -66.43610000
C      -48.74230000     -31.73350000     -70.02920000
H      -49.53340000     -31.50890000     -70.72670000
H      -48.95160000     -31.24550000     -69.09050000
S      -44.40790000     -34.11230000     -67.81650000
S      -47.15860000     -30.84660000     -70.63370000
C      -44.13610000     -34.44030000     -69.61480000
H      -43.46510000     -35.27800000     -69.76080000
H      -45.09530000     -34.68980000     -70.12470000
C      -46.98050000     -31.50830000     -72.29500000
H      -46.32600000     -30.82720000     -72.76910000
H      -47.97500000     -31.41850000     -72.79330000
C      -46.30250000     -32.92100000     -72.41650000
H      -45.84430000     -33.19060000     -71.50570000
H      -47.16920000     -33.58360000     -72.68720000
C      -43.60540000     -33.16920000     -70.33830000
H      -42.67430000     -32.76170000     -69.79780000
H      -44.43150000     -32.34500000     -70.18520000
C      -43.12690000     -33.39630000     -71.77910000
C      -41.78760000     -33.72880000     -71.96330000
C      -43.82240000     -33.29410000     -73.08050000
H      -41.07180000     -34.01200000     -71.20410000
C      -42.99100000     -33.47310000     -74.13170000
C      -45.20290000     -32.97380000     -73.47190000
C      -45.28110000     -32.84470000     -74.84830000
S      -41.28690000     -33.76320000     -73.63720000
S      -43.68340000     -33.09660000     -75.66990000
H      -46.22390000     -32.75960000     -75.41760000
