40
Properties=species:S:1:pos:R:3 #=T CELL(abcABC):=T 1.889726e+02=T 90.00000=T Traj:=T positionsangstrom=T Step:=T 0=T Bead:=T pbc="F F F"
C      -46.51360000     -31.56000000     -66.84400000
C      -46.53870000     -32.61210000     -67.82540000
C      -47.16480000     -32.41220000     -69.03030000
C      -47.78510000     -31.18140000     -69.35020000
C      -47.87870000     -30.20770000     -68.34820000
C      -47.18540000     -30.34580000     -67.07350000
H      -45.98540000     -31.76510000     -65.94560000
H      -47.17000000     -33.23860000     -69.76090000
H      -48.48280000     -29.30170000     -68.61150000
H      -47.32010000     -29.56620000     -66.35580000
C      -48.57820000     -30.97650000     -70.61870000
H      -49.25240000     -30.17030000     -70.52740000
H      -49.28080000     -31.84290000     -70.83310000
C      -45.66870000     -33.87340000     -67.66850000
H      -44.79320000     -33.61400000     -67.08850000
H      -46.19960000     -34.60170000     -67.04810000
S      -47.41030000     -30.76660000     -72.26450000
S      -45.06240000     -34.73840000     -69.18550000
C      -46.56210000     -32.40200000     -72.39540000
H      -46.08530000     -32.70430000     -71.43360000
H      -47.25320000     -33.14040000     -72.68790000
C      -43.52210000     -33.66540000     -69.37040000
H      -42.68560000     -34.28510000     -69.04910000
H      -43.57630000     -32.80640000     -68.63890000
C      -43.44640000     -33.15340000     -70.89960000
H      -44.34740000     -32.60610000     -71.07680000
H      -42.54360000     -32.52170000     -70.79520000
C      -45.41990000     -32.11650000     -73.41450000
H      -44.63500000     -31.45220000     -73.07620000
H      -45.85390000     -31.61180000     -74.26720000
C      -44.77060000     -33.42870000     -73.98040000
C      -45.16530000     -33.96270000     -75.16190000
C      -43.86330000     -34.33120000     -73.20740000
H      -45.85020000     -33.48670000     -75.97200000
C      -43.55070000     -35.45840000     -73.88530000
C      -43.26180000     -34.24660000     -71.87210000
C      -42.42570000     -35.39780000     -71.65990000
S      -44.45460000     -35.55140000     -75.42410000
S      -42.64940000     -36.56220000     -72.96790000
H      -41.81950000     -35.63430000     -70.81030000
