40
Properties=species:S:1:pos:R:3 #=T CELL(abcABC):=T 1.889726e+02=T 90.00000=T Traj:=T positionsangstrom=T Step:=T 0=T Bead:=T pbc="F F F"
C      -45.61160000     -32.30340000     -67.69250000
C      -45.47550000     -33.72750000     -67.99810000
C      -44.27470000     -34.26800000     -68.52850000
C      -43.14860000     -33.35100000     -68.78840000
C      -43.35590000     -32.01180000     -68.48000000
C      -44.50650000     -31.49120000     -67.93640000
H      -46.51350000     -31.82460000     -67.22410000
H      -44.08250000     -35.39920000     -68.60660000
H      -42.43580000     -31.51760000     -68.47290000
H      -44.46850000     -30.57270000     -67.46570000
C      -41.80530000     -33.77980000     -69.23320000
H      -41.72580000     -34.87280000     -69.22040000
H      -40.94160000     -33.43150000     -68.60360000
C      -46.54000000     -34.69320000     -67.60770000
H      -46.15440000     -35.21510000     -66.73570000
H      -47.61830000     -34.46140000     -67.35220000
S      -41.33770000     -33.15890000     -70.93480000
S      -46.90620000     -36.13400000     -68.85590000
C      -42.87650000     -32.49810000     -71.91320000
H      -43.56010000     -31.88000000     -71.34400000
H      -42.38530000     -31.88730000     -72.64260000
C      -47.63220000     -35.41590000     -70.44330000
H      -48.52690000     -34.80170000     -70.08810000
H      -48.05850000     -36.25170000     -70.93110000
C      -46.48490000     -34.61750000     -71.29010000
H      -45.93320000     -34.19820000     -70.44330000
H      -45.77510000     -35.33850000     -71.62700000
C      -43.63320000     -33.65370000     -72.67360000
H      -44.06710000     -34.36920000     -71.94970000
H      -42.80570000     -34.22330000     -73.20320000
C      -44.68700000     -33.10270000     -73.64160000
C      -44.42970000     -32.44170000     -74.81290000
C      -46.06980000     -33.08440000     -73.32660000
H      -43.45160000     -32.22880000     -75.09930000
C      -46.82390000     -32.44980000     -74.33310000
C      -46.96680000     -33.67780000     -72.38430000
C      -48.28260000     -33.55600000     -72.59560000
S      -45.78640000     -31.76220000     -75.61160000
S      -48.54360000     -32.57930000     -74.07000000
H      -49.07260000     -33.86080000     -71.94110000
