40
Properties=species:S:1:pos:R:3 #=T CELL(abcABC):=T 1.889726e+02=T 90.00000=T Traj:=T positionsangstrom=T Step:=T 0=T Bead:=T pbc="F F F"
C      -45.59490000     -32.29550000     -67.50170000
C      -45.45260000     -33.67600000     -67.85080000
C      -44.33640000     -34.17590000     -68.53580000
C      -43.29060000     -33.32200000     -68.93350000
C      -43.39700000     -31.93850000     -68.57170000
C      -44.51270000     -31.46770000     -67.86480000
H      -46.49070000     -31.96910000     -66.87700000
H      -44.22100000     -35.26320000     -68.82310000
H      -42.61960000     -31.21110000     -68.87060000
H      -44.67820000     -30.40450000     -67.71100000
C      -42.05350000     -33.94050000     -69.57420000
H      -42.27880000     -34.93800000     -69.93260000
H      -41.26070000     -33.97950000     -68.82360000
C      -46.71080000     -34.60560000     -67.65380000
H      -46.59560000     -34.96000000     -66.67680000
H      -47.55130000     -33.89090000     -67.54850000
S      -41.33860000     -32.97500000     -71.04080000
S      -46.98840000     -36.00590000     -68.78630000
C      -42.94930000     -32.52100000     -71.81590000
H      -43.64110000     -32.17910000     -71.00650000
H      -42.67260000     -31.73710000     -72.59930000
C      -47.61130000     -34.96460000     -70.21640000
H      -48.21090000     -34.08800000     -69.79460000
H      -48.27820000     -35.60940000     -70.75780000
C      -46.43290000     -34.50360000     -71.13140000
H      -45.71620000     -33.79970000     -70.68500000
H      -45.91050000     -35.43880000     -71.48360000
C      -43.54000000     -33.74110000     -72.60520000
H      -43.86480000     -34.53080000     -71.86830000
H      -42.81380000     -34.22710000     -73.22410000
C      -44.63660000     -33.27000000     -73.54810000
C      -44.24710000     -32.44920000     -74.56040000
C      -46.06670000     -33.34750000     -73.41690000
H      -43.22230000     -32.11460000     -74.72480000
C      -46.74930000     -32.72800000     -74.46540000
C      -46.99100000     -33.82910000     -72.43460000
C      -48.26370000     -33.53650000     -72.67580000
S      -45.64540000     -31.96530000     -75.57790000
S      -48.46610000     -32.68930000     -74.17340000
H      -49.09140000     -33.71040000     -72.01280000
