40
Properties=species:S:1:pos:R:3 #=T CELL(abcABC):=T 1.889726e+02=T 90.00000=T Traj:=T positionsangstrom=T Step:=T 0=T Bead:=T pbc="F F F"
C      -45.37390000     -32.40210000     -66.54510000
C      -45.71730000     -33.10610000     -67.65500000
C      -44.59460000     -33.60810000     -68.37230000
C      -43.29710000     -33.18310000     -68.28860000
C      -43.05550000     -32.22210000     -67.22480000
C      -44.06110000     -31.80610000     -66.41700000
H      -46.16600000     -32.04240000     -65.93820000
H      -44.84940000     -34.32580000     -69.22040000
H      -42.09020000     -31.64630000     -67.21250000
H      -43.96320000     -30.99010000     -65.70240000
C      -42.27790000     -33.72410000     -69.24790000
H      -42.70740000     -34.57480000     -69.82990000
H      -41.43340000     -34.09700000     -68.61040000
C      -47.17090000     -33.48600000     -67.95190000
H      -47.82070000     -33.47270000     -67.04080000
H      -47.65050000     -32.70330000     -68.57190000
S      -41.73970000     -32.58450000     -70.62350000
S      -47.44150000     -35.07710000     -68.85560000
C      -43.26280000     -32.56410000     -71.75970000
H      -44.13840000     -32.20770000     -71.30560000
H      -42.97120000     -31.78750000     -72.43990000
C      -47.71720000     -34.48840000     -70.56350000
H      -48.48340000     -33.70920000     -70.58050000
H      -48.01000000     -35.36010000     -71.10860000
C      -46.52040000     -33.85050000     -71.25690000
H      -46.04210000     -33.03810000     -70.69380000
H      -45.67290000     -34.58110000     -71.36510000
C      -43.51810000     -33.97460000     -72.42890000
H      -43.93740000     -34.69830000     -71.69610000
H      -42.58040000     -34.48400000     -72.75380000
C      -44.44220000     -33.82700000     -73.71660000
C      -43.98100000     -33.73290000     -75.00000000
C      -45.89190000     -33.51290000     -73.70770000
H      -42.97100000     -33.85450000     -75.37220000
C      -46.41460000     -33.12790000     -74.94800000
C      -46.91760000     -33.48080000     -72.70140000
C      -48.20520000     -33.20640000     -73.11350000
S      -45.21430000     -33.49260000     -76.19790000
S      -48.15480000     -32.96950000     -74.86920000
H      -49.04390000     -32.97470000     -72.47260000
