40
Properties=species:S:1:pos:R:3 #=T CELL(abcABC):=T 1.889726e+02=T 90.00000=T Traj:=T positionsangstrom=T Step:=T 0=T Bead:=T pbc="F F F"
C      -45.14800000     -31.83340000     -66.90040000
C      -45.53630000     -32.88810000     -67.69000000
C      -44.56500000     -33.69640000     -68.26570000
C      -43.20850000     -33.30520000     -68.17780000
C      -42.80510000     -32.25100000     -67.34020000
C      -43.82840000     -31.51040000     -66.69190000
H      -45.90190000     -31.25540000     -66.34090000
H      -44.91830000     -34.50030000     -68.90650000
H      -41.81810000     -31.80610000     -67.33580000
H      -43.45230000     -30.60610000     -66.23740000
C      -42.18570000     -33.97230000     -69.11690000
H      -42.65330000     -34.90800000     -69.48850000
H      -41.27240000     -34.17670000     -68.49590000
C      -47.03390000     -33.04130000     -68.06270000
H      -47.59060000     -32.71920000     -67.21370000
H      -47.20120000     -32.47990000     -68.99440000
S      -41.76230000     -32.85320000     -70.57380000
S      -47.58230000     -34.68760000     -68.59390000
C      -43.41520000     -32.67030000     -71.47070000
H      -44.27600000     -32.54660000     -70.74170000
H      -43.26170000     -31.77640000     -72.05860000
C      -47.85120000     -34.18670000     -70.37300000
H      -48.18470000     -33.17480000     -70.29490000
H      -48.72420000     -34.82180000     -70.64550000
C      -46.70320000     -34.41050000     -71.34400000
H      -45.90790000     -33.81350000     -70.89970000
H      -46.44430000     -35.47320000     -71.43130000
C      -43.52720000     -33.85080000     -72.47270000
H      -43.96170000     -34.73810000     -71.86850000
H      -42.54320000     -34.04940000     -72.84420000
C      -44.44290000     -33.58880000     -73.69400000
C      -44.02830000     -33.35850000     -74.97810000
C      -45.86030000     -33.68180000     -73.71460000
H      -42.99580000     -33.22510000     -75.26830000
C      -46.44580000     -33.47420000     -75.01230000
C      -46.92990000     -33.96950000     -72.75260000
C      -48.18850000     -33.88550000     -73.29550000
S      -45.28940000     -33.12730000     -76.20630000
S      -48.19380000     -33.36980000     -75.00320000
H      -49.13330000     -33.96610000     -72.81380000
