40
Properties=species:S:1:pos:R:3 #=T CELL(abcABC):=T 1.889726e+02=T 90.00000=T Traj:=T positionsangstrom=T Step:=T 0=T Bead:=T pbc="F F F"
C      -46.95630000     -32.20200000     -67.60300000
C      -47.30250000     -33.30150000     -68.34330000
C      -48.01170000     -33.17860000     -69.56170000
C      -48.18740000     -31.89540000     -70.10270000
C      -47.63500000     -30.79960000     -69.44240000
C      -47.16200000     -30.93420000     -68.18740000
H      -46.32680000     -32.30010000     -66.68470000
H      -48.32660000     -34.13970000     -70.05590000
H      -47.63250000     -29.84720000     -69.95120000
H      -46.77760000     -30.12880000     -67.62200000
C      -48.97220000     -31.79630000     -71.41830000
H      -49.89050000     -31.23440000     -71.21540000
H      -49.28860000     -32.73200000     -71.85530000
C      -46.83280000     -34.65590000     -67.82800000
H      -47.22790000     -34.98760000     -66.84600000
H      -47.06730000     -35.39020000     -68.57350000
S      -48.10910000     -30.86080000     -72.78620000
S      -44.89310000     -34.75240000     -67.74770000
C      -46.98670000     -32.11400000     -73.33110000
H      -47.57140000     -32.92260000     -73.68460000
H      -46.44950000     -31.60780000     -74.16500000
C      -44.34060000     -34.19710000     -69.50390000
H      -43.23230000     -34.13930000     -69.40550000
H      -44.75580000     -33.27910000     -69.87220000
C      -44.45730000     -35.46540000     -70.43070000
H      -44.18720000     -36.33570000     -69.77420000
H      -45.52160000     -35.65520000     -70.73350000
C      -45.86010000     -32.56350000     -72.27840000
H      -46.35950000     -33.31400000     -71.69010000
H      -45.66040000     -31.72090000     -71.59540000
C      -44.57030000     -33.03030000     -72.93320000
C      -44.00630000     -32.29860000     -73.92970000
C      -43.77130000     -34.23810000     -72.71330000
H      -44.39080000     -31.35640000     -74.24340000
C      -42.74750000     -34.35250000     -73.64820000
C      -43.68420000     -35.37410000     -71.74780000
C      -42.71160000     -36.25780000     -72.07140000
S      -42.70800000     -33.07630000     -74.77920000
S      -41.72060000     -35.74850000     -73.43010000
H      -42.40950000     -37.18020000     -71.55070000
