40
Properties=species:S:1:pos:R:3 #=T CELL(abcABC):=T 1.889726e+02=T 90.00000=T Traj:=T positionsangstrom=T Step:=T 0=T Bead:=T pbc="F F F"
C      -46.66120000     -36.35810000     -69.80030000
C      -45.35120000     -36.51500000     -70.22870000
C      -44.98660000     -36.40330000     -71.59880000
C      -46.02240000     -36.26440000     -72.49730000
C      -47.38610000     -36.10310000     -72.12740000
C      -47.62980000     -36.03040000     -70.75600000
H      -46.80180000     -36.29430000     -68.72670000
H      -43.96370000     -36.46470000     -71.88920000
H      -48.04610000     -35.81310000     -72.84310000
H      -48.61830000     -35.80130000     -70.46080000
C      -45.63530000     -36.24690000     -74.02460000
H      -46.51090000     -36.05300000     -74.62210000
H      -45.32330000     -37.34220000     -74.27360000
C      -44.25550000     -36.72000000     -69.17260000
H      -44.62440000     -36.85070000     -68.13990000
H      -43.64480000     -37.60830000     -69.42370000
S      -44.21600000     -35.19220000     -74.52000000
S      -43.13940000     -35.26140000     -69.16080000
C      -44.67870000     -33.52920000     -74.27180000
H      -44.03420000     -32.92550000     -74.85270000
H      -45.68730000     -33.33750000     -74.75630000
C      -44.34030000     -33.84220000     -69.15760000
H      -44.85660000     -33.78170000     -68.19850000
H      -45.07740000     -34.10740000     -69.93890000
C      -43.55800000     -32.58860000     -69.51530000
H      -43.01150000     -32.30180000     -68.62350000
H      -42.84650000     -32.83450000     -70.32880000
C      -44.70050000     -33.10360000     -72.81500000
H      -43.64760000     -33.19960000     -72.28580000
H      -45.22560000     -33.84630000     -72.21180000
C      -45.35000000     -31.79610000     -72.48090000
C      -46.33940000     -31.17410000     -73.19150000
C      -45.25040000     -31.17540000     -71.15260000
H      -46.58680000     -31.30360000     -74.15690000
C      -46.10560000     -30.05290000     -70.98370000
C      -44.50950000     -31.41350000     -69.92550000
C      -44.92330000     -30.53120000     -68.92990000
S      -47.03390000     -29.75610000     -72.39770000
S      -46.11120000     -29.34280000     -69.38970000
H      -44.50860000     -30.45740000     -67.94660000
