40
Properties=species:S:1:pos:R:3 #=T CELL(abcABC):=T 1.889726e+02=T 90.00000=T Traj:=T positionsangstrom=T Step:=T 0=T Bead:=T pbc="F F F"
C      -49.18610000     -34.06780000     -70.54420000
C      -48.41410000     -33.11960000     -69.85670000
C      -47.33380000     -33.51870000     -69.04520000
C      -47.14450000     -34.89840000     -68.85770000
C      -48.06000000     -35.80210000     -69.35990000
C      -49.08220000     -35.38590000     -70.19130000
H      -49.89940000     -33.67480000     -71.18130000
H      -46.69330000     -32.84010000     -68.60490000
H      -47.90610000     -36.86870000     -69.20070000
H      -49.75060000     -36.13700000     -70.68240000
C      -46.01650000     -35.48310000     -68.02940000
H      -45.76150000     -36.47030000     -68.39420000
H      -46.40840000     -35.64650000     -67.01520000
C      -48.59280000     -31.71220000     -70.16960000
H      -49.29750000     -31.54350000     -70.98800000
H      -48.91920000     -31.10770000     -69.32310000
S      -44.37810000     -34.54250000     -67.98670000
S      -47.03010000     -30.75000000     -70.58880000
C      -44.00520000     -34.55350000     -69.79140000
H      -43.13030000     -35.12580000     -70.06160000
H      -44.88180000     -35.00660000     -70.30830000
C      -46.61980000     -31.37850000     -72.28740000
H      -45.68680000     -30.95520000     -72.66170000
H      -47.39170000     -31.07840000     -73.11750000
C      -46.33190000     -32.88810000     -72.32640000
H      -46.14940000     -33.26470000     -71.30490000
H      -47.20520000     -33.51480000     -72.73570000
C      -43.77790000     -33.09400000     -70.21440000
H      -43.17580000     -32.73400000     -69.48110000
H      -44.71750000     -32.51670000     -70.23760000
C      -43.12890000     -32.98410000     -71.56770000
C      -41.78820000     -32.82030000     -71.71880000
C      -43.79720000     -33.14290000     -72.84600000
H      -41.06340000     -32.71970000     -70.90970000
C      -42.90770000     -33.17070000     -73.94720000
C      -45.14880000     -33.15580000     -73.26520000
C      -45.29840000     -33.49900000     -74.55900000
S      -41.28670000     -33.12090000     -73.36790000
S      -43.78510000     -33.57050000     -75.43060000
H      -46.23050000     -33.41100000     -75.12600000
