40
Properties=species:S:1:pos:R:3 #=T CELL(abcABC):=T 1.889726e+02=T 90.00000=T Traj:=T positionsangstrom=T Step:=T 0=T Bead:=T pbc="F F F"
C      -47.07160000     -35.79450000     -69.90350000
C      -45.78280000     -36.24480000     -70.05630000
C      -45.30540000     -36.49330000     -71.35910000
C      -46.02370000     -36.15200000     -72.45600000
C      -47.36270000     -35.73310000     -72.25950000
C      -47.89990000     -35.57720000     -70.98970000
H      -47.40040000     -35.51420000     -68.87890000
H      -44.28360000     -36.80610000     -71.42890000
H      -47.91410000     -35.44980000     -73.19450000
H      -48.83460000     -35.15820000     -70.82430000
C      -45.43630000     -36.39460000     -73.84520000
H      -46.12880000     -36.14760000     -74.60270000
H      -45.18860000     -37.47920000     -73.83360000
C      -44.90050000     -36.47420000     -68.86860000
H      -45.58980000     -36.35310000     -67.99510000
H      -44.46130000     -37.50970000     -68.74350000
S      -43.85830000     -35.44430000     -74.28460000
S      -43.49120000     -35.19870000     -68.79760000
C      -44.45090000     -33.77430000     -74.31890000
H      -43.80580000     -33.17140000     -74.96900000
H      -45.37720000     -33.73600000     -74.90130000
C      -44.53190000     -33.65580000     -69.05470000
H      -45.08410000     -33.33340000     -68.14460000
H      -45.25380000     -33.93340000     -69.84910000
C      -43.56080000     -32.59610000     -69.56580000
H      -42.85770000     -32.24070000     -68.78420000
H      -42.91620000     -33.03600000     -70.37080000
C      -44.51350000     -33.30430000     -72.85730000
H      -43.51900000     -33.21250000     -72.45520000
H      -45.00110000     -34.07810000     -72.20860000
C      -45.26650000     -32.06600000     -72.46270000
C      -46.27050000     -31.48500000     -73.24740000
C      -45.20020000     -31.34960000     -71.18290000
H      -46.49450000     -31.76150000     -74.28610000
C      -46.06750000     -30.25320000     -71.16820000
C      -44.38560000     -31.41390000     -69.96750000
C      -44.50100000     -30.30590000     -69.18120000
S      -47.04580000     -30.04510000     -72.59600000
S      -45.75110000     -29.19350000     -69.74700000
H      -44.06460000     -30.22450000     -68.20680000
