40
Properties=species:S:1:pos:R:3 #=T CELL(abcABC):=T 1.889726e+02=T 90.00000=T Traj:=T positionsangstrom=T Step:=T 0=T Bead:=T pbc="F F F"
C      -46.50840000     -31.90570000     -68.20550000
C      -46.13240000     -33.20490000     -67.84520000
C      -44.77350000     -33.53420000     -67.88780000
C      -43.76300000     -32.63370000     -68.30880000
C      -44.14170000     -31.30310000     -68.51460000
C      -45.52850000     -30.93330000     -68.42550000
H      -47.59840000     -31.61660000     -68.24980000
H      -44.62830000     -34.63390000     -67.80500000
H      -43.47780000     -30.57140000     -68.90980000
H      -45.75840000     -29.92490000     -68.57150000
C      -42.34130000     -33.05120000     -68.53940000
H      -42.03150000     -33.93160000     -67.90770000
H      -41.68560000     -32.23050000     -68.15010000
C      -47.10980000     -34.35090000     -67.58040000
H      -47.01450000     -34.85350000     -66.63070000
H      -48.16620000     -33.94600000     -67.58400000
S      -41.75100000     -33.35550000     -70.31200000
S      -46.92290000     -35.75640000     -68.75950000
C      -43.17020000     -33.07740000     -71.43480000
H      -44.09480000     -32.99870000     -70.89570000
H      -42.98560000     -32.11370000     -71.90060000
C      -47.40870000     -35.15370000     -70.47620000
H      -48.37550000     -34.60100000     -70.39480000
H      -47.59190000     -36.04710000     -71.01640000
C      -46.41880000     -34.18080000     -71.16170000
H      -46.34880000     -33.25780000     -70.56960000
H      -45.36600000     -34.57020000     -71.13910000
C      -43.35580000     -34.13120000     -72.54100000
H      -43.69750000     -35.16600000     -72.19650000
H      -42.29380000     -34.33610000     -72.87530000
C      -44.21830000     -33.60590000     -73.65940000
C      -43.73280000     -33.11650000     -74.84200000
C      -45.61740000     -33.43430000     -73.50640000
H      -42.68860000     -33.24020000     -75.10490000
C      -46.14730000     -32.84750000     -74.62790000
C      -46.66630000     -33.83520000     -72.58770000
C      -47.90860000     -33.52180000     -73.04670000
S      -45.00080000     -32.54640000     -75.91370000
S      -47.86470000     -32.98090000     -74.68510000
H      -48.81910000     -33.76360000     -72.55760000
