40
Properties=species:S:1:pos:R:3 #=T CELL(abcABC):=T 1.889726e+02=T 90.00000=T Traj:=T positionsangstrom=T Step:=T 0=T Bead:=T pbc="F F F"
C      -46.62440000     -36.69400000     -69.74230000
C      -45.26790000     -36.71080000     -70.28970000
C      -45.02840000     -36.57450000     -71.63630000
C      -46.05560000     -36.14250000     -72.52520000
C      -47.34100000     -35.95000000     -71.96920000
C      -47.63980000     -36.38710000     -70.70770000
H      -46.89290000     -36.94230000     -68.70860000
H      -44.01310000     -36.57090000     -72.11480000
H      -48.14020000     -35.64010000     -72.65380000
H      -48.72810000     -36.32460000     -70.43520000
C      -45.79550000     -35.86870000     -73.90660000
H      -46.42090000     -35.04960000     -74.28510000
H      -45.96890000     -36.70740000     -74.53640000
C      -44.09980000     -36.79650000     -69.34640000
H      -44.34890000     -37.15130000     -68.34460000
H      -43.37650000     -37.55090000     -69.73450000
S      -44.16230000     -35.25580000     -74.40420000
S      -43.17250000     -35.23130000     -69.24640000
C      -44.53940000     -33.39470000     -74.27190000
H      -43.67110000     -32.83820000     -74.71150000
H      -45.44790000     -33.18710000     -74.82030000
C      -44.37320000     -33.86760000     -69.58450000
H      -45.08650000     -33.67770000     -68.75060000
H      -44.98460000     -34.15450000     -70.43620000
C      -43.57250000     -32.56900000     -69.76920000
H      -42.92500000     -32.41160000     -68.92830000
H      -42.82720000     -32.66170000     -70.57350000
C      -44.65900000     -33.02550000     -72.76910000
H      -43.62910000     -33.02690000     -72.51190000
H      -45.25740000     -33.77990000     -72.28440000
C      -45.38430000     -31.71620000     -72.46880000
C      -46.28360000     -31.00630000     -73.25550000
C      -45.33380000     -31.16530000     -71.12670000
H      -46.49240000     -31.17450000     -74.23390000
C      -46.27770000     -30.11590000     -70.84710000
C      -44.54910000     -31.43430000     -69.92550000
C      -44.87310000     -30.60590000     -68.86710000
S      -47.08890000     -29.66360000     -72.37320000
S      -46.08670000     -29.36140000     -69.23040000
H      -44.31280000     -30.64840000     -67.90260000
