40
Properties=species:S:1:pos:R:3 #=T CELL(abcABC):=T 1.889726e+02=T 90.00000=T Traj:=T positionsangstrom=T Step:=T 0=T Bead:=T pbc="F F F"
C      -46.06060000     -37.34620000     -69.82570000
C      -44.82600000     -36.97630000     -70.44570000
C      -44.70600000     -36.79060000     -71.83380000
C      -45.85650000     -36.80860000     -72.67130000
C      -47.08700000     -37.28390000     -72.03550000
C      -47.19440000     -37.51420000     -70.67140000
H      -45.99910000     -37.52870000     -68.78290000
H      -43.74890000     -36.48410000     -72.23360000
H      -47.99690000     -37.39700000     -72.65070000
H      -48.16660000     -37.75750000     -70.13820000
C      -45.73100000     -36.39490000     -74.12180000
H      -46.76430000     -36.48410000     -74.65670000
H      -45.11930000     -37.10450000     -74.65160000
C      -43.66850000     -36.85820000     -69.52560000
H      -44.02200000     -37.01920000     -68.47470000
H      -42.85040000     -37.59370000     -69.85850000
S      -44.94170000     -34.71640000     -74.52170000
S      -42.86270000     -35.16540000     -69.64430000
C      -45.79470000     -33.51260000     -73.44960000
H      -46.70560000     -33.20580000     -74.02850000
H      -46.18990000     -33.85590000     -72.52930000
C      -44.37200000     -33.97170000     -69.75800000
H      -45.11960000     -34.11220000     -69.02140000
H      -44.82470000     -34.19060000     -70.67980000
C      -43.72340000     -32.60590000     -69.74320000
H      -43.06430000     -32.39930000     -68.92350000
H      -43.08390000     -32.64920000     -70.67360000
C      -44.85320000     -32.33550000     -73.19760000
H      -44.60460000     -31.96310000     -74.22350000
H      -43.84950000     -32.68320000     -72.84680000
C      -45.52710000     -31.27360000     -72.42200000
C      -46.29630000     -30.34540000     -73.06830000
C      -45.41910000     -31.01200000     -71.01340000
H      -46.57270000     -30.35360000     -74.07710000
C      -46.10100000     -29.85030000     -70.71460000
C      -44.71020000     -31.44860000     -69.73850000
C      -45.05960000     -30.73530000     -68.66190000
S      -46.83070000     -29.02380000     -72.06390000
S      -46.11080000     -29.33590000     -69.06300000
H      -44.83400000     -30.93000000     -67.60470000
