40
Properties=species:S:1:pos:R:3 #=T CELL(abcABC):=T 1.889726e+02=T 90.00000=T Traj:=T positionsangstrom=T Step:=T 0=T Bead:=T pbc="F F F"
C      -46.55730000     -32.34930000     -68.02850000
C      -45.79880000     -33.50860000     -67.93510000
C      -44.40410000     -33.38150000     -68.10010000
C      -43.85490000     -32.13580000     -68.53940000
C      -44.65150000     -30.99850000     -68.67530000
C      -46.05150000     -31.08670000     -68.40300000
H      -47.64040000     -32.42020000     -67.92500000
H      -43.75060000     -34.29950000     -68.13570000
H      -44.12380000     -30.10690000     -69.09610000
H      -46.75360000     -30.26850000     -68.43730000
C      -42.31390000     -32.02060000     -68.88350000
H      -41.85370000     -32.35020000     -67.97090000
H      -42.09370000     -30.95260000     -69.06310000
C      -46.55250000     -34.74920000     -67.58000000
H      -46.27810000     -35.37360000     -66.75810000
H      -47.64290000     -34.52040000     -67.38230000
S      -41.94130000     -33.23690000     -70.17560000
S      -46.60100000     -36.12710000     -68.86400000
C      -43.18480000     -32.95610000     -71.49470000
H      -44.24300000     -32.90670000     -71.09650000
H      -43.01630000     -31.96100000     -71.88660000
C      -47.29460000     -35.35360000     -70.45360000
H      -47.43440000     -34.29480000     -70.11160000
H      -48.23440000     -35.83090000     -70.60390000
C      -46.34140000     -35.45000000     -71.68380000
H      -45.33140000     -35.34610000     -71.26910000
H      -46.50370000     -36.40190000     -72.08800000
C      -43.11750000     -33.91140000     -72.68850000
H      -43.27980000     -34.92980000     -72.24200000
H      -42.11610000     -33.86610000     -73.18010000
C      -44.21730000     -33.49150000     -73.60260000
C      -43.82440000     -32.69940000     -74.65610000
C      -45.63660000     -33.67970000     -73.51890000
H      -42.77270000     -32.81300000     -75.04510000
C      -46.25120000     -32.85090000     -74.50470000
C      -46.71600000     -34.30290000     -72.74440000
C      -47.97270000     -33.81530000     -73.01660000
S      -45.11690000     -32.10760000     -75.60830000
S      -47.97680000     -32.78600000     -74.44900000
H      -48.89080000     -34.34480000     -72.71650000
