40
Properties=species:S:1:pos:R:3 #=T CELL(abcABC):=T 1.889726e+02=T 90.00000=T Traj:=T positionsangstrom=T Step:=T 0=T Bead:=T pbc="F F F"
C      -44.80900000     -30.08940000     -72.62910000
C      -46.13350000     -30.34880000     -72.29370000
C      -46.53010000     -30.40980000     -70.94080000
C      -45.59550000     -30.18170000     -69.93800000
C      -44.26850000     -29.98230000     -70.28420000
C      -43.86760000     -29.97070000     -71.60790000
H      -44.52120000     -29.95860000     -73.71150000
H      -47.52270000     -30.69800000     -70.62360000
H      -43.59820000     -29.84970000     -69.47520000
H      -42.89460000     -29.78020000     -71.93190000
C      -45.91070000     -30.37640000     -68.51180000
H      -46.94220000     -30.31390000     -68.17240000
H      -45.60370000     -29.51450000     -67.90030000
C      -47.21920000     -30.49910000     -73.43560000
H      -47.81080000     -29.63550000     -73.23350000
H      -46.82430000     -30.51580000     -74.48010000
S      -44.78840000     -31.71870000     -67.87570000
S      -48.26070000     -31.96650000     -73.10970000
C      -44.98890000     -33.37020000     -68.61220000
H      -44.30200000     -33.99860000     -67.96510000
H      -45.99960000     -33.72630000     -68.50300000
C      -47.01550000     -33.30380000     -73.16180000
H      -46.01870000     -32.84170000     -73.03590000
H      -47.01000000     -33.85500000     -74.10230000
C      -47.22270000     -34.40620000     -72.10760000
H      -47.08500000     -34.09310000     -71.07170000
H      -48.20870000     -34.83860000     -72.10300000
C      -44.56850000     -33.31840000     -70.08310000
H      -43.80530000     -32.56300000     -70.21090000
H      -45.41740000     -33.09800000     -70.72540000
C      -44.08700000     -34.65990000     -70.61140000
C      -42.90340000     -35.25850000     -70.27520000
C      -44.85920000     -35.46250000     -71.55550000
H      -41.99790000     -34.75320000     -69.79670000
C      -44.14860000     -36.58360000     -71.98020000
C      -46.17300000     -35.48370000     -72.33270000
C      -46.36230000     -36.61030000     -73.06960000
S      -42.54520000     -36.70910000     -71.28060000
S      -44.97870000     -37.71250000     -73.00120000
H      -47.30480000     -36.89740000     -73.48710000
