40
Properties=species:S:1:pos:R:3 #=T CELL(abcABC):=T 1.889726e+02=T 90.00000=T Traj:=T positionsangstrom=T Step:=T 0=T Bead:=T pbc="F F F"
C      -44.75170000     -30.09670000     -72.72530000
C      -46.07140000     -30.35490000     -72.42060000
C      -46.48440000     -30.47360000     -71.09180000
C      -45.57940000     -30.23190000     -70.03430000
C      -44.27300000     -29.88060000     -70.33900000
C      -43.89760000     -29.76300000     -71.67350000
H      -44.37430000     -30.13030000     -73.72800000
H      -47.58710000     -30.53310000     -70.90970000
H      -43.62510000     -29.70230000     -69.44670000
H      -42.82350000     -29.55080000     -71.96670000
C      -46.03300000     -30.62830000     -68.58880000
H      -47.00210000     -31.18050000     -68.75710000
H      -46.02960000     -29.71310000     -68.00330000
C      -47.16270000     -30.61760000     -73.47930000
H      -47.75850000     -29.65470000     -73.61440000
H      -46.79800000     -30.74500000     -74.48000000
S      -44.87680000     -31.76760000     -67.68750000
S      -48.27110000     -31.95530000     -73.08780000
C      -45.28040000     -33.22220000     -68.75390000
H      -45.18750000     -34.13430000     -68.19460000
H      -46.31710000     -33.19680000     -69.10440000
C      -47.07400000     -33.36210000     -73.18920000
H      -46.06180000     -32.95880000     -73.12990000
H      -47.13790000     -33.91150000     -74.17930000
C      -47.14790000     -34.30650000     -72.08540000
H      -46.96550000     -33.78680000     -71.13890000
H      -48.16570000     -34.74260000     -72.11950000
C      -44.39910000     -33.31320000     -69.97080000
H      -43.50680000     -32.73560000     -69.83290000
H      -44.94160000     -32.77330000     -70.74050000
C      -44.02990000     -34.67100000     -70.52210000
C      -42.78090000     -35.20650000     -70.30620000
C      -44.83100000     -35.51990000     -71.49110000
H      -41.93400000     -34.77270000     -69.93550000
C      -44.12420000     -36.70100000     -71.88020000
C      -46.12330000     -35.44420000     -72.19150000
C      -46.34810000     -36.53330000     -73.02620000
S      -42.49950000     -36.72930000     -71.17090000
S      -45.00610000     -37.65270000     -73.12130000
H      -47.32100000     -36.63610000     -73.56140000
