40
Properties=species:S:1:pos:R:3 #=T CELL(abcABC):=T 1.889726e+02=T 90.00000=T Traj:=T positionsangstrom=T Step:=T 0=T Bead:=T pbc="F F F"
C      -45.19980000     -29.80170000     -73.07750000
C      -46.44690000     -30.34200000     -72.80380000
C      -46.77940000     -30.70480000     -71.47510000
C      -45.94000000     -30.52040000     -70.40630000
C      -44.69020000     -29.92560000     -70.67680000
C      -44.28010000     -29.60340000     -71.99230000
H      -44.97500000     -29.50450000     -74.14630000
H      -47.80560000     -31.04930000     -71.28940000
H      -43.87440000     -29.90070000     -69.88940000
H      -43.31360000     -29.16330000     -72.06590000
C      -46.32980000     -30.58880000     -68.93320000
H      -47.32690000     -30.98540000     -68.86140000
H      -46.23470000     -29.51000000     -68.59650000
C      -47.52620000     -30.58600000     -73.87700000
H      -48.49220000     -30.11580000     -73.62820000
H      -47.17930000     -30.13260000     -74.79690000
S      -45.11910000     -31.43980000     -67.85240000
S      -47.92230000     -32.36340000     -73.97120000
C      -45.01670000     -33.12910000     -68.54350000
H      -44.82190000     -33.85890000     -67.73350000
H      -46.02640000     -33.51560000     -68.91410000
C      -46.44450000     -33.34310000     -73.56530000
H      -45.46540000     -32.75790000     -73.62340000
H      -46.25930000     -34.15420000     -74.32230000
C      -46.58730000     -33.92400000     -72.16080000
H      -46.24270000     -33.22380000     -71.38760000
H      -47.62810000     -34.17340000     -71.86270000
C      -44.05640000     -33.21460000     -69.69290000
H      -43.10430000     -32.65700000     -69.47580000
H      -44.45810000     -32.65530000     -70.49440000
C      -43.84980000     -34.62990000     -70.23510000
C      -42.75280000     -35.29210000     -69.79150000
C      -44.56610000     -35.44970000     -71.22870000
H      -42.10450000     -34.94690000     -68.99550000
C      -44.09170000     -36.75850000     -71.37930000
C      -45.77940000     -35.22750000     -72.03960000
C      -46.09500000     -36.36090000     -72.77320000
S      -42.65900000     -37.03070000     -70.33740000
S      -44.97770000     -37.68510000     -72.55620000
H      -46.97030000     -36.39460000     -73.38570000
