40
Properties=species:S:1:pos:R:3 #=T CELL(abcABC):=T 1.889726e+02=T 90.00000=T Traj:=T positionsangstrom=T Step:=T 0=T Bead:=T pbc="F F F"
C      -45.22770000     -29.81160000     -73.06620000
C      -46.41300000     -30.52450000     -72.84610000
C      -46.70210000     -30.88750000     -71.54590000
C      -45.99320000     -30.30720000     -70.49270000
C      -44.82190000     -29.53200000     -70.73890000
C      -44.39290000     -29.29670000     -72.04740000
H      -45.00510000     -29.57280000     -74.08860000
H      -47.64030000     -31.43170000     -71.30560000
H      -44.29790000     -29.12970000     -69.88570000
H      -43.48630000     -28.75400000     -72.41490000
C      -46.53540000     -30.44910000     -69.11580000
H      -47.53170000     -30.91950000     -69.10670000
H      -46.64370000     -29.45370000     -68.68350000
C      -47.25780000     -30.80620000     -74.02030000
H      -48.20130000     -30.25070000     -73.92670000
H      -46.67080000     -30.59420000     -74.94100000
S      -45.34710000     -31.29720000     -67.98650000
S      -47.85970000     -32.50820000     -74.14640000
C      -45.30440000     -33.02140000     -68.73650000
H      -45.22940000     -33.75880000     -67.88470000
H      -46.28170000     -33.35740000     -69.21880000
C      -46.44130000     -33.69020000     -73.81910000
H      -45.64020000     -33.09460000     -74.24120000
H      -46.77060000     -34.60060000     -74.36450000
C      -46.29990000     -33.92410000     -72.32070000
H      -45.72400000     -33.09250000     -71.94020000
H      -47.33870000     -33.95060000     -71.91750000
C      -44.07220000     -33.17780000     -69.76260000
H      -43.22120000     -32.77410000     -69.29200000
H      -44.34980000     -32.48000000     -70.59310000
C      -43.73160000     -34.58560000     -70.18660000
C      -42.84000000     -35.35790000     -69.47430000
C      -44.41930000     -35.43970000     -71.15060000
H      -42.11160000     -35.16670000     -68.69300000
C      -43.96250000     -36.73850000     -71.23280000
C      -45.54830000     -35.22280000     -72.02260000
C      -45.97180000     -36.43470000     -72.56890000
S      -42.73030000     -37.00410000     -70.08280000
S      -44.90600000     -37.77390000     -72.24400000
H      -46.80660000     -36.58840000     -73.25370000
