40
Properties=species:S:1:pos:R:3 #=T CELL(abcABC):=T 1.889726e+02=T 90.00000=T Traj:=T positionsangstrom=T Step:=T 0=T Bead:=T pbc="F F F"
C      -49.42410000     -34.15040000     -70.45140000
C      -48.55050000     -33.23180000     -69.86080000
C      -47.41810000     -33.66170000     -69.17620000
C      -47.19630000     -35.02970000     -69.02410000
C      -48.04540000     -35.91890000     -69.66210000
C      -49.20630000     -35.50080000     -70.36000000
H      -50.37810000     -33.74950000     -70.85020000
H      -46.71500000     -32.88100000     -68.73140000
H      -47.89760000     -36.99630000     -69.53870000
H      -49.82130000     -36.21380000     -70.93200000
C      -45.90530000     -35.43680000     -68.21730000
H      -45.37150000     -36.28300000     -68.66950000
H      -46.12810000     -35.67740000     -67.19920000
C      -48.72370000     -31.72700000     -70.01250000
H      -49.48300000     -31.43240000     -70.71140000
H      -48.89290000     -31.24470000     -69.07800000
S      -44.58730000     -34.14480000     -68.03850000
S      -47.05630000     -30.84450000     -70.51680000
C      -43.83180000     -33.99690000     -69.69520000
H      -42.80020000     -34.53450000     -69.63290000
H      -44.44420000     -34.56640000     -70.36700000
C      -46.74540000     -31.66640000     -72.18220000
H      -46.15630000     -30.92260000     -72.71830000
H      -47.66400000     -31.57440000     -72.70980000
C      -46.24060000     -33.12770000     -72.21920000
H      -45.88280000     -33.37940000     -71.21370000
H      -46.96450000     -33.80260000     -72.57140000
C      -43.66000000     -32.59920000     -70.24900000
H      -42.99180000     -32.00200000     -69.61210000
H      -44.57190000     -32.06360000     -70.28870000
C      -42.99560000     -32.70670000     -71.61040000
C      -41.62350000     -32.56570000     -71.84230000
C      -43.68990000     -33.01270000     -72.82800000
H      -40.81700000     -32.53900000     -71.11880000
C      -42.87790000     -33.30590000     -73.87530000
C      -45.07230000     -33.27530000     -73.13300000
C      -45.25510000     -33.80030000     -74.36360000
S      -41.19450000     -33.07320000     -73.49560000
S      -43.73850000     -33.93100000     -75.27380000
H      -46.26340000     -33.97550000     -74.75650000
