40
Properties=species:S:1:pos:R:3 #=T CELL(abcABC):=T 1.889726e+02=T 90.00000=T Traj:=T positionsangstrom=T Step:=T 0=T Bead:=T pbc="F F F"
C      -48.72670000     -31.69440000     -72.75640000
C      -48.57180000     -32.09080000     -71.42100000
C      -48.34950000     -33.44950000     -71.18580000
C      -48.32300000     -34.38240000     -72.24150000
C      -48.29450000     -33.91430000     -73.55030000
C      -48.50070000     -32.55980000     -73.79340000
H      -48.79960000     -30.66280000     -72.89520000
H      -48.40170000     -33.81570000     -70.17090000
H      -48.14930000     -34.64360000     -74.39880000
H      -48.49490000     -32.27090000     -74.83320000
C      -48.28320000     -35.84910000     -72.11330000
H      -49.13850000     -36.27200000     -72.65590000
H      -48.28560000     -36.21810000     -71.08720000
C      -48.36000000     -31.04200000     -70.27960000
H      -49.19520000     -30.35990000     -70.03790000
H      -48.18230000     -31.59580000     -69.29570000
S      -46.77510000     -36.45230000     -72.96660000
S      -46.87880000     -30.00740000     -70.55360000
C      -45.42310000     -35.65800000     -71.91390000
H      -45.98490000     -35.46310000     -71.01280000
H      -44.70300000     -36.45000000     -71.61250000
C      -45.46000000     -31.19310000     -70.89100000
H      -44.48270000     -30.69890000     -70.59000000
H      -45.41430000     -31.42430000     -71.93600000
C      -45.48860000     -32.48810000     -70.11180000
H      -45.95820000     -32.30390000     -69.12870000
H      -46.03600000     -33.22500000     -70.70040000
C      -44.79380000     -34.49120000     -72.63680000
H      -45.51990000     -33.64650000     -72.60020000
H      -44.66240000     -34.59550000     -73.70230000
C      -43.45360000     -34.20490000     -72.06590000
C      -42.25420000     -34.76810000     -72.43710000
C      -43.26560000     -33.50970000     -70.82290000
H      -42.18190000     -35.45200000     -73.28660000
C      -41.96100000     -33.52510000     -70.38130000
C      -44.09720000     -32.83510000     -69.80900000
C      -43.37640000     -32.40740000     -68.71740000
S      -40.90400000     -34.50090000     -71.34350000
S      -41.69450000     -32.86810000     -68.78640000
H      -43.76140000     -31.78160000     -67.96520000
