40
Properties=species:S:1:pos:R:3 #=T CELL(abcABC):=T 1.889726e+02=T 90.00000=T Traj:=T positionsangstrom=T Step:=T 0=T Bead:=T pbc="F F F"
C      -48.08810000     -31.42850000     -72.63740000
C      -48.32490000     -32.07990000     -71.39540000
C      -48.55340000     -33.46790000     -71.33100000
C      -48.56760000     -34.28080000     -72.47770000
C      -48.19800000     -33.66480000     -73.66930000
C      -47.98390000     -32.27610000     -73.75800000
H      -48.12850000     -30.37410000     -72.59440000
H      -48.88150000     -33.91460000     -70.35150000
H      -47.97030000     -34.34580000     -74.47780000
H      -47.70080000     -31.90930000     -74.77760000
C      -48.70820000     -35.77720000     -72.33420000
H      -49.49210000     -36.25140000     -73.02210000
H      -48.96810000     -35.99730000     -71.31870000
C      -48.41880000     -31.31480000     -70.08840000
H      -49.30460000     -30.67730000     -69.88110000
H      -48.43680000     -31.89720000     -69.19450000
S      -47.06080000     -36.57910000     -72.90840000
S      -47.06300000     -30.10800000     -69.89730000
C      -45.77930000     -35.91340000     -71.85360000
H      -46.13700000     -35.77830000     -70.83620000
H      -45.02350000     -36.70590000     -71.76060000
C      -45.63420000     -31.06690000     -70.45980000
H      -44.85540000     -30.37570000     -70.42670000
H      -45.80830000     -31.25380000     -71.43970000
C      -45.29270000     -32.25230000     -69.63990000
H      -45.46840000     -32.11930000     -68.56320000
H      -45.87860000     -33.08830000     -69.90060000
C      -45.05980000     -34.63110000     -72.33540000
H      -45.73500000     -33.77900000     -72.12550000
H      -44.92130000     -34.75950000     -73.45560000
C      -43.62140000     -34.56300000     -71.76200000
C      -42.60270000     -35.29250000     -72.30250000
C      -43.18870000     -33.61000000     -70.79490000
H      -42.49520000     -36.00160000     -73.12610000
C      -41.83210000     -33.57380000     -70.64110000
C      -43.85850000     -32.62320000     -69.89530000
C      -42.90970000     -32.00140000     -69.12760000
S      -40.96870000     -34.75420000     -71.72800000
S      -41.26430000     -32.49160000     -69.42020000
H      -43.12220000     -31.25620000     -68.43690000
