40
Properties=species:S:1:pos:R:3 #=T CELL(abcABC):=T 1.889726e+02=T 90.00000=T Traj:=T positionsangstrom=T Step:=T 0=T Bead:=T pbc="F F F"
C      -49.03040000     -31.60810000     -73.20890000
C      -48.67880000     -31.87170000     -71.90760000
C      -48.39100000     -33.25480000     -71.54960000
C      -48.50290000     -34.23820000     -72.49580000
C      -48.83000000     -33.90170000     -73.84410000
C      -49.03420000     -32.60260000     -74.19600000
H      -49.12630000     -30.56420000     -73.57840000
H      -48.18670000     -33.49300000     -70.49530000
H      -48.93620000     -34.67820000     -74.58040000
H      -49.09210000     -32.33290000     -75.24920000
C      -48.45000000     -35.65440000     -72.06100000
H      -49.34290000     -36.27990000     -72.28810000
H      -48.34060000     -35.63490000     -70.94020000
C      -48.50280000     -30.74080000     -70.83270000
H      -49.07040000     -29.80200000     -71.11020000
H      -48.78890000     -31.09910000     -69.85590000
S      -46.86770000     -36.56800000     -72.72920000
S      -46.76240000     -30.02630000     -70.87900000
C      -45.67540000     -35.88690000     -71.58150000
H      -46.01970000     -35.71840000     -70.59090000
H      -44.89670000     -36.66560000     -71.41310000
C      -45.46100000     -31.31990000     -70.95960000
H      -44.64300000     -30.66390000     -71.19200000
H      -45.66890000     -31.99140000     -71.83550000
C      -45.19700000     -32.14710000     -69.71310000
H      -45.60370000     -31.57200000     -68.81420000
H      -45.74660000     -33.05860000     -69.60180000
C      -44.93330000     -34.65360000     -72.21530000
H      -45.62400000     -33.82360000     -71.97150000
H      -44.77700000     -34.81130000     -73.34410000
C      -43.53490000     -34.42470000     -71.56520000
C      -42.42620000     -35.18750000     -72.01300000
C      -43.07920000     -33.60920000     -70.49590000
H      -42.36440000     -35.70600000     -72.99900000
C      -41.76880000     -33.70670000     -70.12820000
C      -43.69220000     -32.64020000     -69.63980000
C      -42.89480000     -32.05030000     -68.72770000
S      -40.90120000     -34.74430000     -71.24530000
S      -41.24490000     -32.75470000     -68.79540000
H      -43.16810000     -31.29090000     -68.00890000
