40
Properties=species:S:1:pos:R:3 #=T CELL(abcABC):=T 1.889726e+02=T 90.00000=T Traj:=T positionsangstrom=T Step:=T 0=T Bead:=T pbc="F F F"
C      -48.43060000     -31.54390000     -73.56990000
C      -48.28320000     -31.70300000     -72.16550000
C      -48.50460000     -32.99820000     -71.68210000
C      -48.40190000     -34.16400000     -72.51280000
C      -48.43450000     -33.98340000     -73.90100000
C      -48.60350000     -32.69010000     -74.36780000
H      -48.46900000     -30.53550000     -74.01400000
H      -48.62740000     -33.04670000     -70.57370000
H      -48.51520000     -34.82250000     -74.68850000
H      -48.67860000     -32.52740000     -75.44330000
C      -48.47870000     -35.55920000     -71.98560000
H      -49.48100000     -36.00400000     -72.15610000
H      -48.31430000     -35.43470000     -70.91500000
C      -48.33510000     -30.68110000     -71.05110000
H      -49.08800000     -29.91430000     -71.25510000
H      -48.52490000     -31.18930000     -70.05340000
S      -47.13930000     -36.66800000     -72.56510000
S      -46.71120000     -29.62430000     -71.02650000
C      -45.58030000     -36.08580000     -71.65110000
H      -45.77480000     -35.98270000     -70.57210000
H      -44.87380000     -36.83170000     -71.84810000
C      -45.32630000     -30.89470000     -71.11590000
H      -44.36650000     -30.28230000     -71.26320000
H      -45.42410000     -31.39040000     -71.99640000
C      -45.21110000     -31.85490000     -69.88750000
H      -45.52500000     -31.46760000     -68.93070000
H      -45.89100000     -32.63960000     -70.15330000
C      -44.97840000     -34.78170000     -72.18550000
H      -45.52650000     -33.87780000     -71.98180000
H      -44.96020000     -35.03720000     -73.31170000
C      -43.59280000     -34.55920000     -71.57280000
C      -42.54290000     -35.47120000     -71.73720000
C      -43.20970000     -33.58740000     -70.53300000
H      -42.60910000     -36.48810000     -72.25920000
C      -41.94620000     -33.87780000     -70.02840000
C      -43.78230000     -32.48270000     -69.75090000
C      -42.95280000     -31.97320000     -68.82600000
S      -41.10060000     -35.20620000     -70.78320000
S      -41.42870000     -32.83720000     -68.70240000
H      -43.27240000     -31.23400000     -68.08760000
