40
Properties=species:S:1:pos:R:3 #=T CELL(abcABC):=T 1.889726e+02=T 90.00000=T Traj:=T positionsangstrom=T Step:=T 0=T Bead:=T pbc="F F F"
C      -48.16530000     -31.53350000     -73.65470000
C      -48.36150000     -31.55950000     -72.23570000
C      -48.39790000     -32.83900000     -71.66280000
C      -48.35680000     -33.99750000     -72.47910000
C      -48.24570000     -33.93520000     -73.86260000
C      -48.27310000     -32.62970000     -74.44410000
H      -48.08780000     -30.52420000     -74.10920000
H      -48.37300000     -32.88500000     -70.60900000
H      -48.16010000     -34.87340000     -74.50940000
H      -48.24300000     -32.55630000     -75.51990000
C      -48.39190000     -35.41810000     -71.83610000
H      -49.35610000     -35.95550000     -71.99690000
H      -48.27490000     -35.44860000     -70.76810000
C      -48.37980000     -30.28970000     -71.45550000
H      -48.73380000     -29.39400000     -71.98790000
H      -48.96370000     -30.36310000     -70.56130000
S      -47.17050000     -36.55190000     -72.64000000
S      -46.71820000     -29.77240000     -70.93850000
C      -45.68130000     -36.14400000     -71.66040000
H      -46.09150000     -36.12400000     -70.66910000
H      -44.97810000     -37.01510000     -71.55900000
C      -45.42460000     -31.09380000     -71.12040000
H      -44.51610000     -30.50640000     -71.06780000
H      -45.55250000     -31.64590000     -72.10220000
C      -45.35850000     -32.10340000     -69.94950000
H      -45.64820000     -31.47790000     -69.08010000
H      -46.01980000     -32.96780000     -70.13180000
C      -44.92650000     -34.89150000     -72.10180000
H      -45.60810000     -33.98650000     -71.98430000
H      -44.87990000     -34.91290000     -73.17700000
C      -43.60250000     -34.70180000     -71.47770000
C      -42.59890000     -35.61740000     -71.63310000
C      -43.25010000     -33.76040000     -70.41710000
H      -42.67410000     -36.43020000     -72.38030000
C      -41.92370000     -33.83950000     -70.01280000
C      -43.90550000     -32.62660000     -69.65500000
C      -43.06920000     -31.97550000     -68.79890000
S      -41.14430000     -35.26610000     -70.67040000
S      -41.46820000     -32.73260000     -68.83100000
H      -43.26040000     -31.27160000     -67.99860000
