40
Properties=species:S:1:pos:R:3 #=T CELL(abcABC):=T 1.889726e+02=T 90.00000=T Traj:=T positionsangstrom=T Step:=T 0=T Bead:=T pbc="F F F"
C      -48.93340000     -31.54100000     -73.24590000
C      -48.55910000     -31.85140000     -71.86170000
C      -48.28740000     -33.18710000     -71.60450000
C      -48.57560000     -34.23820000     -72.47400000
C      -49.00960000     -33.94760000     -73.76740000
C      -49.10210000     -32.58070000     -74.13740000
H      -49.22520000     -30.54060000     -73.49180000
H      -47.76170000     -33.44100000     -70.72360000
H      -49.22230000     -34.66730000     -74.49430000
H      -49.45580000     -32.37740000     -75.16610000
C      -48.31390000     -35.63620000     -72.03250000
H      -49.11140000     -36.22640000     -72.50780000
H      -48.41840000     -35.68570000     -70.98440000
C      -48.36550000     -30.83810000     -70.73790000
H      -49.02080000     -29.99130000     -70.81180000
H      -48.58270000     -31.23980000     -69.76520000
S      -46.85900000     -36.61960000     -72.64810000
S      -46.69040000     -30.02320000     -70.76070000
C      -45.30370000     -36.00290000     -71.75830000
H      -45.48120000     -35.83450000     -70.71950000
H      -44.53380000     -36.76500000     -72.06550000
C      -45.55560000     -31.51300000     -70.94480000
H      -44.58300000     -31.12250000     -71.28600000
H      -45.99430000     -32.15380000     -71.72280000
C      -45.26100000     -32.28040000     -69.64120000
H      -45.43050000     -31.72230000     -68.75460000
H      -45.99850000     -33.14200000     -69.67680000
C      -44.88580000     -34.65610000     -72.30870000
H      -45.62180000     -33.88100000     -72.13920000
H      -44.75510000     -34.71680000     -73.33760000
C      -43.53340000     -34.28770000     -71.79720000
C      -42.36700000     -34.89280000     -72.27290000
C      -43.15600000     -33.58040000     -70.53890000
H      -42.37300000     -35.61520000     -73.10750000
C      -41.82780000     -33.68100000     -70.18620000
C      -43.87090000     -32.72480000     -69.56320000
C      -43.04550000     -32.26550000     -68.64150000
S      -40.91010000     -34.67090000     -71.26370000
S      -41.37870000     -32.65620000     -68.80840000
H      -43.40050000     -31.52880000     -67.93720000
