40
Properties=species:S:1:pos:R:3 #=T CELL(abcABC):=T 1.889726e+02=T 90.00000=T Traj:=T positionsangstrom=T Step:=T 0=T Bead:=T pbc="F F F"
C      -48.10920000     -31.37900000     -73.75040000
C      -48.29870000     -31.46300000     -72.36570000
C      -48.36210000     -32.77750000     -71.82070000
C      -48.33810000     -33.92180000     -72.55920000
C      -48.12770000     -33.83420000     -73.97050000
C      -47.99090000     -32.56790000     -74.48720000
H      -47.79630000     -30.45940000     -74.21180000
H      -48.53940000     -32.95020000     -70.81200000
H      -48.04720000     -34.75290000     -74.52470000
H      -47.76470000     -32.44840000     -75.58190000
C      -48.47600000     -35.26860000     -71.81470000
H      -49.50760000     -35.65930000     -71.81720000
H      -48.21180000     -35.03760000     -70.75330000
C      -48.28470000     -30.16300000     -71.46170000
H      -48.69050000     -29.30040000     -72.03730000
H      -48.97830000     -30.23910000     -70.59440000
S      -47.38850000     -36.58890000     -72.51370000
S      -46.54990000     -29.87510000     -70.88980000
C      -45.69480000     -36.28770000     -71.66780000
H      -45.88610000     -36.16730000     -70.58810000
H      -44.98290000     -37.12170000     -71.83590000
C      -45.49060000     -31.39440000     -71.25990000
H      -44.58080000     -31.14600000     -71.64550000
H      -45.99360000     -32.02670000     -72.09130000
C      -45.37320000     -32.18680000     -69.98060000
H      -45.65300000     -31.57130000     -69.08840000
H      -46.12800000     -32.96710000     -69.90650000
C      -44.94540000     -35.00330000     -72.06320000
H      -45.50860000     -34.05450000     -71.88240000
H      -44.71020000     -34.97240000     -73.09520000
C      -43.65230000     -34.86820000     -71.30490000
C      -42.55340000     -35.68930000     -71.52100000
C      -43.37420000     -33.85450000     -70.30120000
H      -42.51890000     -36.32330000     -72.37690000
C      -42.01050000     -33.88280000     -69.94060000
C      -43.98440000     -32.64090000     -69.70790000
C      -43.13110000     -31.80520000     -69.02010000
S      -41.09770000     -35.26750000     -70.66500000
S      -41.52910000     -32.58960000     -68.77120000
H      -43.26290000     -30.82370000     -68.57500000
