40
Properties=species:S:1:pos:R:3 #=T CELL(abcABC):=T 1.889726e+02=T 90.00000=T Traj:=T positionsangstrom=T Step:=T 0=T Bead:=T pbc="F F F"
C      -47.99770000     -31.47420000     -73.76920000
C      -48.19020000     -31.56370000     -72.38110000
C      -48.24080000     -32.82030000     -71.77270000
C      -48.13030000     -33.97680000     -72.60570000
C      -47.90440000     -33.90020000     -73.98640000
C      -47.96870000     -32.59550000     -74.56340000
H      -47.78760000     -30.53730000     -74.24360000
H      -48.49830000     -33.00580000     -70.67280000
H      -47.87680000     -34.76270000     -74.66290000
H      -47.75620000     -32.53780000     -75.59420000
C      -48.50450000     -35.34420000     -72.08230000
H      -49.44950000     -35.63680000     -72.59980000
H      -48.79890000     -35.39130000     -71.03760000
C      -48.20130000     -30.27930000     -71.47600000
H      -48.73160000     -29.40620000     -71.92910000
H      -48.66430000     -30.36840000     -70.52350000
S      -47.26950000     -36.69480000     -72.44630000
S      -46.51780000     -29.65730000     -71.13870000
C      -45.95450000     -36.04900000     -71.33260000
H      -46.47920000     -35.54390000     -70.47600000
H      -45.39740000     -36.95550000     -70.97370000
C      -45.25900000     -30.99240000     -71.23830000
H      -44.22750000     -30.49700000     -71.09480000
H      -45.36260000     -31.41010000     -72.19580000
C      -45.43630000     -32.03430000     -70.11550000
H      -45.81570000     -31.52350000     -69.21970000
H      -46.17590000     -32.85200000     -70.34290000
C      -45.03190000     -35.01260000     -72.08290000
H      -45.59560000     -34.08480000     -72.09540000
H      -44.74120000     -35.18580000     -73.10820000
C      -43.75500000     -34.88970000     -71.19560000
C      -42.70170000     -35.77070000     -71.44500000
C      -43.40000000     -33.79660000     -70.30630000
H      -42.73890000     -36.71730000     -71.96760000
C      -42.10770000     -33.98430000     -69.83440000
C      -44.08950000     -32.62860000     -69.74930000
C      -43.22050000     -31.94580000     -68.92440000
S      -41.18250000     -35.26810000     -70.60190000
S      -41.60370000     -32.69030000     -68.71440000
H      -43.62950000     -31.10870000     -68.34300000
