40
Properties=species:S:1:pos:R:3 #=T CELL(abcABC):=T 1.889726e+02=T 90.00000=T Traj:=T positionsangstrom=T Step:=T 0=T Bead:=T pbc="F F F"
C      -47.96110000     -31.45630000     -73.62200000
C      -48.10500000     -31.70350000     -72.23080000
C      -48.21990000     -33.02180000     -71.80140000
C      -48.32680000     -34.07100000     -72.75740000
C      -48.32940000     -33.79480000     -74.10950000
C      -48.06600000     -32.49710000     -74.50790000
H      -47.67170000     -30.49830000     -73.99200000
H      -48.20630000     -33.36510000     -70.75320000
H      -48.69110000     -34.52050000     -74.77170000
H      -47.92290000     -32.32460000     -75.64020000
C      -48.59840000     -35.45850000     -72.33610000
H      -49.39150000     -35.86130000     -72.94110000
H      -48.87650000     -35.60680000     -71.27280000
C      -47.99130000     -30.58240000     -71.22120000
H      -48.81740000     -29.86390000     -71.38680000
H      -48.06760000     -30.90390000     -70.20680000
S      -47.10890000     -36.55190000     -72.67200000
S      -46.41840000     -29.52690000     -71.35990000
C      -45.92350000     -35.79690000     -71.35960000
H      -46.50060000     -35.49560000     -70.46010000
H      -45.30990000     -36.65600000     -71.12090000
C      -45.02600000     -30.76240000     -71.18130000
H      -44.17940000     -30.11450000     -70.86800000
H      -44.75650000     -31.22610000     -72.12530000
C      -45.22230000     -31.79490000     -70.09680000
H      -45.57270000     -31.39400000     -69.21470000
H      -45.96820000     -32.47860000     -70.51200000
C      -45.02000000     -34.82610000     -72.07570000
H      -45.51830000     -33.85690000     -72.16340000
H      -44.92690000     -35.11100000     -73.12560000
C      -43.70860000     -34.62810000     -71.38410000
C      -42.70500000     -35.52120000     -71.61970000
C      -43.43470000     -33.72690000     -70.33880000
H      -42.83730000     -36.36580000     -72.26670000
C      -42.20280000     -34.03560000     -69.74800000
C      -44.00790000     -32.55550000     -69.68320000
C      -43.25060000     -32.20020000     -68.61860000
S      -41.38930000     -35.42900000     -70.51410000
S      -41.68960000     -33.05270000     -68.42970000
H      -43.41150000     -31.37400000     -67.91120000
