40
Properties=species:S:1:pos:R:3 #=T CELL(abcABC):=T 1.889726e+02=T 90.00000=T Traj:=T positionsangstrom=T Step:=T 0=T Bead:=T pbc="F F F"
C      -48.10360000     -31.23290000     -73.62880000
C      -47.99680000     -31.58560000     -72.27910000
C      -48.17450000     -32.84140000     -71.87310000
C      -48.34880000     -33.82960000     -72.86020000
C      -48.30320000     -33.55540000     -74.24130000
C      -48.15070000     -32.19260000     -74.59680000
H      -47.98780000     -30.21240000     -73.97410000
H      -48.24450000     -33.12420000     -70.85990000
H      -48.40310000     -34.33480000     -75.04230000
H      -48.17910000     -31.84940000     -75.58150000
C      -48.75400000     -35.21150000     -72.40380000
H      -49.58560000     -35.63980000     -73.00380000
H      -49.07600000     -35.16900000     -71.38540000
C      -47.88680000     -30.40670000     -71.25460000
H      -48.65820000     -29.66940000     -71.37490000
H      -47.94700000     -30.73330000     -70.23010000
S      -47.37050000     -36.47870000     -72.57080000
S      -46.18350000     -29.65150000     -71.37420000
C      -46.02130000     -35.88130000     -71.41430000
H      -46.55050000     -35.51330000     -70.52290000
H      -45.50700000     -36.74580000     -70.97840000
C      -45.07450000     -31.17660000     -71.34260000
H      -44.08560000     -30.79250000     -71.51900000
H      -45.37380000     -31.75790000     -72.24750000
C      -45.25770000     -32.05820000     -70.02980000
H      -45.75970000     -31.51550000     -69.17270000
H      -45.97120000     -32.82900000     -70.21820000
C      -45.06420000     -34.81190000     -72.00720000
H      -45.48780000     -33.82300000     -72.02530000
H      -44.90400000     -35.14230000     -73.05810000
C      -43.75290000     -34.79520000     -71.26930000
C      -42.75260000     -35.75680000     -71.46870000
C      -43.39890000     -33.79050000     -70.28300000
H      -42.88050000     -36.48080000     -72.24760000
C      -42.08760000     -34.01260000     -69.88840000
C      -44.01460000     -32.73020000     -69.53450000
C      -43.18480000     -32.22470000     -68.53010000
S      -41.32420000     -35.47250000     -70.51890000
S      -41.60080000     -33.09420000     -68.41330000
H      -43.34950000     -31.39150000     -67.87920000
