40
Properties=species:S:1:pos:R:3 #=T CELL(abcABC):=T 1.889726e+02=T 90.00000=T Traj:=T positionsangstrom=T Step:=T 0=T Bead:=T pbc="F F F"
C      -49.23310000     -34.22360000     -70.57500000
C      -48.41860000     -33.26740000     -70.03740000
C      -47.39120000     -33.60930000     -69.11280000
C      -47.05390000     -34.91300000     -68.90270000
C      -47.92440000     -35.93840000     -69.54380000
C      -49.02600000     -35.59660000     -70.30020000
H      -50.04770000     -33.94630000     -71.22220000
H      -46.88260000     -32.86540000     -68.55650000
H      -47.76760000     -36.98580000     -69.33840000
H      -49.65550000     -36.38300000     -70.72890000
C      -45.95330000     -35.39860000     -68.04210000
H      -45.62380000     -36.34520000     -68.36560000
H      -46.44390000     -35.64390000     -67.08060000
C      -48.66330000     -31.76290000     -70.16760000
H      -49.52600000     -31.64220000     -70.79640000
H      -48.84940000     -31.33950000     -69.14890000
S      -44.56460000     -34.25070000     -67.84070000
S      -47.28710000     -30.81060000     -70.78610000
C      -43.68030000     -34.28330000     -69.45850000
H      -42.63270000     -34.50320000     -69.25130000
H      -44.16800000     -35.10410000     -70.08060000
C      -46.54550000     -31.45220000     -72.37570000
H      -45.66030000     -30.90760000     -72.58790000
H      -47.23850000     -31.22950000     -73.20760000
C      -46.30130000     -32.98400000     -72.38910000
H      -46.20300000     -33.55910000     -71.47710000
H      -47.24990000     -33.42970000     -72.82940000
C      -43.79360000     -32.84440000     -70.16760000
H      -43.40020000     -32.06650000     -69.63750000
H      -44.86690000     -32.60310000     -70.27570000
C      -43.14330000     -32.85120000     -71.53390000
C      -41.73850000     -32.82870000     -71.67750000
C      -43.76960000     -33.14270000     -72.80920000
H      -41.16540000     -32.53040000     -70.83840000
C      -42.88610000     -33.16490000     -73.89970000
C      -45.13640000     -33.24740000     -73.27170000
C      -45.29300000     -33.67280000     -74.57540000
S      -41.18070000     -32.99680000     -73.33050000
S      -43.72570000     -33.72110000     -75.34530000
H      -46.17080000     -34.00780000     -75.05300000
