40
Properties=species:S:1:pos:R:3 #=T CELL(abcABC):=T 1.889726e+02=T 90.00000=T Traj:=T positionsangstrom=T Step:=T 0=T Bead:=T pbc="F F F"
C      -47.88300000     -31.58150000     -73.55140000
C      -48.12440000     -31.76980000     -72.15490000
C      -48.46310000     -33.07520000     -71.75950000
C      -48.43700000     -34.16980000     -72.75840000
C      -48.21180000     -33.87790000     -74.10290000
C      -47.83900000     -32.59120000     -74.47320000
H      -47.77740000     -30.55260000     -73.87910000
H      -48.70260000     -33.42490000     -70.75720000
H      -48.22800000     -34.63350000     -74.91260000
H      -47.72990000     -32.29920000     -75.56640000
C      -48.65480000     -35.54120000     -72.24090000
H      -49.55210000     -35.96020000     -72.70940000
H      -48.93330000     -35.57120000     -71.15400000
C      -47.94450000     -30.58310000     -71.19980000
H      -48.67030000     -29.82510000     -71.28090000
H      -47.99430000     -30.93570000     -70.10530000
S      -47.24650000     -36.56890000     -72.64430000
S      -46.37260000     -29.58980000     -71.42050000
C      -45.87820000     -35.81410000     -71.62770000
H      -46.22950000     -35.42670000     -70.62660000
H      -45.29130000     -36.71760000     -71.40310000
C      -45.02620000     -30.83530000     -71.20500000
H      -44.14510000     -30.27800000     -70.98100000
H      -44.78730000     -31.42350000     -72.12980000
C      -45.29230000     -31.89560000     -70.13820000
H      -45.81140000     -31.50240000     -69.19170000
H      -46.01750000     -32.67650000     -70.49660000
C      -45.02480000     -34.69800000     -72.17670000
H      -45.62460000     -33.76060000     -72.06090000
H      -44.78960000     -34.73360000     -73.23670000
C      -43.69500000     -34.56340000     -71.36630000
C      -42.82660000     -35.61080000     -71.46670000
C      -43.29130000     -33.64690000     -70.35250000
H      -42.81560000     -36.41800000     -72.24250000
C      -42.13610000     -34.02380000     -69.68210000
C      -43.98100000     -32.52160000     -69.72070000
C      -43.24160000     -32.05360000     -68.69500000
S      -41.32260000     -35.26500000     -70.50000000
S      -41.71940000     -32.96770000     -68.41640000
H      -43.54980000     -31.25770000     -68.06350000
