40
Properties=species:S:1:pos:R:3 #=T CELL(abcABC):=T 1.889726e+02=T 90.00000=T Traj:=T positionsangstrom=T Step:=T 0=T Bead:=T pbc="F F F"
C      -43.67460000     -30.15970000     -71.92980000
C      -44.91070000     -30.18940000     -72.61280000
C      -46.08980000     -30.14440000     -71.83310000
C      -46.06970000     -30.35080000     -70.38890000
C      -44.78650000     -30.29180000     -69.80570000
C      -43.62800000     -30.13130000     -70.55160000
H      -42.75890000     -30.21870000     -72.52710000
H      -47.04820000     -30.19710000     -72.35070000
H      -44.69870000     -30.45980000     -68.74560000
H      -42.65550000     -30.12420000     -69.98970000
C      -47.35300000     -30.56920000     -69.64360000
H      -48.16980000     -30.90230000     -70.24330000
H      -47.57780000     -29.65040000     -69.14270000
C      -44.97660000     -30.30270000     -74.08660000
H      -45.42640000     -29.39180000     -74.45470000
H      -43.93490000     -30.31130000     -74.56390000
S      -47.14260000     -31.78130000     -68.21650000
S      -46.20850000     -31.55880000     -74.61740000
C      -46.67590000     -33.29560000     -69.12210000
H      -46.98200000     -34.11540000     -68.45890000
H      -47.33300000     -33.33450000     -70.08630000
C      -45.57910000     -33.23160000     -74.28550000
H      -44.63210000     -33.42900000     -74.69300000
H      -46.42480000     -33.82260000     -74.70330000
C      -45.44830000     -33.54700000     -72.78880000
H      -44.73440000     -32.85710000     -72.33650000
H      -46.40020000     -33.29780000     -72.31710000
C      -45.15590000     -33.48260000     -69.40400000
H      -44.66370000     -33.32050000     -68.38550000
H      -44.78350000     -32.72020000     -70.08600000
C      -44.75340000     -34.85280000     -69.84620000
C      -44.27820000     -35.76590000     -68.88180000
C      -44.90810000     -35.51920000     -71.16520000
H      -44.16480000     -35.61600000     -67.84120000
C      -44.60810000     -36.85930000     -71.11850000
C      -45.08790000     -35.01180000     -72.52400000
C      -45.15850000     -36.01330000     -73.43630000
S      -44.01540000     -37.38620000     -69.53970000
S      -44.68000000     -37.64310000     -72.74510000
H      -45.55920000     -35.92030000     -74.39930000
