40
Properties=species:S:1:pos:R:3 #=T CELL(abcABC):=T 1.889726e+02=T 90.00000=T Traj:=T positionsangstrom=T Step:=T 0=T Bead:=T pbc="F F F"
C      -43.99150000     -29.95990000     -71.61410000
C      -45.19680000     -30.08540000     -72.39790000
C      -46.38890000     -30.27880000     -71.70320000
C      -46.42210000     -30.49370000     -70.26410000
C      -45.22340000     -30.42990000     -69.52810000
C      -44.03870000     -30.06390000     -70.22200000
H      -43.03290000     -29.81070000     -72.15540000
H      -47.31600000     -30.29080000     -72.33140000
H      -45.34040000     -30.41520000     -68.44630000
H      -43.10660000     -29.93640000     -69.69270000
C      -47.72600000     -30.64620000     -69.54500000
H      -48.49260000     -30.70490000     -70.26530000
H      -47.80520000     -29.80650000     -68.80140000
C      -45.07770000     -29.97590000     -73.90160000
H      -45.74450000     -29.22140000     -74.29570000
H      -43.98310000     -29.82090000     -74.23230000
S      -47.75820000     -32.08080000     -68.42060000
S      -45.64540000     -31.55650000     -74.74410000
C      -47.25850000     -33.53050000     -69.50300000
H      -47.88530000     -34.39540000     -69.20410000
H      -47.66440000     -33.20350000     -70.48860000
C      -44.53450000     -32.91210000     -74.16320000
H      -43.45430000     -32.63290000     -74.39520000
H      -44.86890000     -33.79840000     -74.73030000
C      -44.68600000     -33.24650000     -72.67190000
H      -44.15740000     -32.52890000     -72.03490000
H      -45.77210000     -33.17420000     -72.40340000
C      -45.76530000     -33.80200000     -69.45190000
H      -45.48570000     -33.60620000     -68.45710000
H      -45.27560000     -32.93270000     -70.01030000
C      -45.30690000     -35.16010000     -69.91570000
C      -45.50440000     -36.28460000     -69.09220000
C      -44.64870000     -35.44160000     -71.13300000
H      -45.95000000     -36.26020000     -68.14810000
C      -44.35250000     -36.75860000     -71.20890000
C      -44.25320000     -34.73340000     -72.36550000
C      -43.66030000     -35.51650000     -73.29310000
S      -44.95810000     -37.77080000     -69.87020000
S      -43.33180000     -37.16950000     -72.65720000
H      -43.19760000     -35.27970000     -74.26710000
