40
Properties=species:S:1:pos:R:3 #=T CELL(abcABC):=T 1.889726e+02=T 90.00000=T Traj:=T positionsangstrom=T Step:=T 0=T Bead:=T pbc="F F F"
C      -44.07830000     -29.53700000     -71.64670000
C      -45.09770000     -30.16420000     -72.38480000
C      -46.28950000     -30.46430000     -71.71560000
C      -46.35970000     -30.29160000     -70.30580000
C      -45.29870000     -29.73510000     -69.60470000
C      -44.14320000     -29.38820000     -70.27580000
H      -43.17690000     -29.34510000     -72.16750000
H      -47.12160000     -31.01750000     -72.12770000
H      -45.33630000     -29.74170000     -68.51680000
H      -43.19890000     -29.01990000     -69.83760000
C      -47.54920000     -30.64870000     -69.47200000
H      -48.23930000     -31.20390000     -70.06870000
H      -47.86760000     -29.76380000     -68.96130000
C      -44.89000000     -30.35530000     -73.86580000
H      -45.11490000     -29.42610000     -74.45850000
H      -43.86120000     -30.65770000     -74.11730000
S      -46.98150000     -31.82940000     -68.09450000
S      -45.99800000     -31.60010000     -74.66940000
C      -46.90200000     -33.50380000     -68.91800000
H      -46.92920000     -34.31890000     -68.18180000
H      -47.76050000     -33.64740000     -69.47740000
C      -45.05210000     -33.20690000     -74.41100000
H      -43.95160000     -33.12570000     -74.73010000
H      -45.51140000     -33.95050000     -75.14390000
C      -45.06790000     -33.58070000     -72.90400000
H      -44.38140000     -32.90390000     -72.34520000
H      -46.03830000     -33.37860000     -72.49040000
C      -45.57060000     -33.69350000     -69.71450000
H      -44.73810000     -33.00800000     -69.26930000
H      -45.61300000     -33.18730000     -70.63680000
C      -45.11370000     -35.10380000     -69.96160000
C      -44.91090000     -36.07400000     -68.98160000
C      -44.84130000     -35.58970000     -71.31700000
H      -45.10940000     -36.06360000     -67.89630000
C      -44.55420000     -36.94440000     -71.31840000
C      -44.69300000     -35.01800000     -72.63190000
C      -44.34620000     -35.96530000     -73.52890000
S      -44.52750000     -37.60470000     -69.66820000
S      -43.92820000     -37.50710000     -72.87070000
H      -44.19050000     -35.86840000     -74.59960000
