40
Properties=species:S:1:pos:R:3 #=T CELL(abcABC):=T 1.889726e+02=T 90.00000=T Traj:=T positionsangstrom=T Step:=T 0=T Bead:=T pbc="F F F"
C      -44.05370000     -29.93590000     -71.74820000
C      -45.25200000     -30.08620000     -72.46340000
C      -46.41680000     -30.31490000     -71.73310000
C      -46.41320000     -30.38260000     -70.32250000
C      -45.21670000     -30.09830000     -69.55310000
C      -44.03320000     -29.81820000     -70.30850000
H      -43.20250000     -29.66180000     -72.38030000
H      -47.40620000     -30.47430000     -72.27590000
H      -45.18160000     -30.06080000     -68.48220000
H      -43.04440000     -29.50240000     -69.90570000
C      -47.68600000     -30.65910000     -69.55810000
H      -48.44630000     -30.75250000     -70.35820000
H      -47.98820000     -29.69290000     -68.97560000
C      -45.32040000     -30.06240000     -73.99710000
H      -46.17870000     -29.44230000     -74.25980000
H      -44.47390000     -29.60360000     -74.47560000
S      -47.42180000     -31.95910000     -68.22240000
S      -45.81550000     -31.65570000     -74.70820000
C      -47.05200000     -33.49180000     -69.25400000
H      -47.61930000     -34.30540000     -68.71730000
H      -47.53200000     -33.28620000     -70.15510000
C      -44.60690000     -32.89300000     -74.13080000
H      -43.65240000     -32.48890000     -74.36670000
H      -44.73400000     -33.73600000     -74.75910000
C      -44.87460000     -33.36900000     -72.69120000
H      -44.54440000     -32.64750000     -71.93080000
H      -45.98890000     -33.48680000     -72.67590000
C      -45.60470000     -33.82720000     -69.37010000
H      -45.11090000     -33.80370000     -68.37540000
H      -45.03390000     -33.07200000     -69.91430000
C      -45.41520000     -35.18650000     -69.97620000
C      -45.58070000     -36.32870000     -69.19710000
C      -44.73490000     -35.52910000     -71.22260000
H      -46.18930000     -36.33740000     -68.32040000
C      -44.41570000     -36.88220000     -71.28770000
C      -44.19990000     -34.74930000     -72.39040000
C      -43.44270000     -35.54820000     -73.19850000
S      -44.92230000     -37.78550000     -69.94580000
S      -43.40630000     -37.24540000     -72.65390000
H      -42.88220000     -35.16990000     -74.07670000
