40
Properties=species:S:1:pos:R:3 #=T CELL(abcABC):=T 1.889726e+02=T 90.00000=T Traj:=T positionsangstrom=T Step:=T 0=T Bead:=T pbc="F F F"
C      -43.71380000     -30.24010000     -70.49170000
C      -44.57440000     -30.27380000     -71.58960000
C      -45.94740000     -30.45730000     -71.43240000
C      -46.47490000     -30.47560000     -70.10560000
C      -45.57790000     -30.38920000     -68.99610000
C      -44.19400000     -30.28630000     -69.23050000
H      -42.64200000     -30.03460000     -70.66760000
H      -46.59790000     -30.49360000     -72.29050000
H      -45.86110000     -30.44230000     -67.92090000
H      -43.53340000     -30.22760000     -68.34510000
C      -47.96760000     -30.77750000     -69.86710000
H      -48.49360000     -30.56710000     -70.83330000
H      -48.30390000     -30.13460000     -69.06010000
C      -44.14910000     -30.05960000     -73.01760000
H      -44.45160000     -29.06060000     -73.28220000
H      -43.08760000     -30.15830000     -73.08730000
S      -48.28500000     -32.41820000     -69.19230000
S      -45.01970000     -30.91030000     -74.38410000
C      -47.37520000     -33.52710000     -70.23570000
H      -47.83250000     -34.46440000     -70.09240000
H      -47.45760000     -33.20420000     -71.27660000
C      -44.51790000     -32.71230000     -74.22520000
H      -43.41310000     -32.70460000     -73.92510000
H      -44.46390000     -33.16910000     -75.23930000
C      -45.32620000     -33.53290000     -73.18530000
H      -45.33510000     -32.95020000     -72.28950000
H      -46.42200000     -33.67860000     -73.53320000
C      -45.89330000     -33.66940000     -69.79060000
H      -45.97160000     -33.43390000     -68.68600000
H      -45.28470000     -32.90690000     -70.35040000
C      -45.35950000     -35.02300000     -70.04310000
C      -45.25300000     -36.03220000     -69.12080000
C      -44.95460000     -35.43620000     -71.41320000
H      -45.65840000     -35.98480000     -68.14070000
C      -44.49790000     -36.79540000     -71.37080000
C      -44.80990000     -34.90820000     -72.80370000
C      -44.20120000     -35.83580000     -73.66020000
S      -44.48280000     -37.51680000     -69.79750000
S      -43.62020000     -37.27040000     -72.86190000
H      -43.84750000     -35.63980000     -74.67030000
