40
Properties=species:S:1:pos:R:3 #=T CELL(abcABC):=T 1.889726e+02=T 90.00000=T Traj:=T positionsangstrom=T Step:=T 0=T Bead:=T pbc="F F F"
C      -43.83780000     -29.75960000     -70.28680000
C      -44.45660000     -30.21710000     -71.47180000
C      -45.87030000     -30.53310000     -71.40870000
C      -46.52500000     -30.51430000     -70.17960000
C      -45.85210000     -30.15700000     -68.96110000
C      -44.49130000     -29.77340000     -69.03030000
H      -42.73700000     -29.54540000     -70.27790000
H      -46.39650000     -30.96910000     -72.25040000
H      -46.35510000     -30.31920000     -68.03940000
H      -43.95010000     -29.45450000     -68.16720000
C      -47.98100000     -30.90370000     -70.18660000
H      -48.36030000     -31.02370000     -71.24440000
H      -48.56140000     -30.24710000     -69.54810000
C      -43.67690000     -30.04500000     -72.73240000
H      -43.75990000     -28.95650000     -73.02020000
H      -42.61290000     -30.25130000     -72.65480000
S      -48.27720000     -32.44300000     -69.23870000
S      -44.52100000     -30.95140000     -74.26480000
C      -47.38380000     -33.81330000     -70.11080000
H      -47.93250000     -34.65350000     -69.92770000
H      -47.41910000     -33.60160000     -71.17400000
C      -44.32720000     -32.75410000     -73.88980000
H      -43.27460000     -32.86650000     -73.60470000
H      -44.42940000     -33.26140000     -74.82090000
C      -45.30150000     -33.36330000     -72.88590000
H      -45.13840000     -32.84830000     -71.94240000
H      -46.31720000     -33.23070000     -73.26530000
C      -45.91410000     -33.91050000     -69.62940000
H      -45.96540000     -33.97980000     -68.53050000
H      -45.24100000     -33.08580000     -69.96860000
C      -45.28210000     -35.18070000     -70.04150000
C      -44.99170000     -36.15140000     -69.18910000
C      -44.99070000     -35.56370000     -71.41160000
H      -45.20460000     -36.11760000     -68.13180000
C      -44.50320000     -36.82710000     -71.60030000
C      -45.04000000     -34.83870000     -72.68360000
C      -44.49660000     -35.59850000     -73.70670000
S      -44.42470000     -37.63220000     -70.04930000
S      -44.15980000     -37.27240000     -73.19760000
H      -44.20200000     -35.29960000     -74.72970000
