40
Properties=species:S:1:pos:R:3 #=T CELL(abcABC):=T 1.889726e+02=T 90.00000=T Traj:=T positionsangstrom=T Step:=T 0=T Bead:=T pbc="F F F"
C      -43.92060000     -29.65400000     -70.20190000
C      -44.51430000     -30.05340000     -71.40150000
C      -45.78170000     -30.51550000     -71.41090000
C      -46.59850000     -30.47080000     -70.25650000
C      -46.07260000     -29.96190000     -69.04530000
C      -44.72560000     -29.54830000     -69.03370000
H      -42.88300000     -29.32660000     -70.18800000
H      -46.10600000     -30.87000000     -72.39540000
H      -46.72020000     -29.81600000     -68.17100000
H      -44.32920000     -28.98760000     -68.17800000
C      -48.00410000     -31.03950000     -70.28310000
H      -48.30040000     -31.39550000     -71.28990000
H      -48.71430000     -30.20830000     -70.01950000
C      -43.60770000     -30.01070000     -72.68160000
H      -43.59730000     -28.97120000     -73.00250000
H      -42.59440000     -30.41010000     -72.49730000
S      -48.17000000     -32.48820000     -69.00250000
S      -44.31080000     -30.92740000     -74.20750000
C      -47.30280000     -33.95790000     -69.77580000
H      -47.71510000     -34.80500000     -69.19290000
H      -47.64740000     -33.96800000     -70.75560000
C      -44.13230000     -32.74210000     -73.99670000
H      -43.15290000     -33.04250000     -73.67620000
H      -44.32100000     -33.19290000     -74.99000000
C      -45.14840000     -33.34800000     -73.06300000
H      -45.02910000     -32.76270000     -72.12740000
H      -46.18060000     -33.10990000     -73.38070000
C      -45.77080000     -33.82310000     -69.67800000
H      -45.49480000     -33.48500000     -68.66630000
H      -45.43380000     -33.06450000     -70.40700000
C      -45.14940000     -35.11510000     -70.12100000
C      -45.03930000     -36.16050000     -69.21870000
C      -44.80970000     -35.45980000     -71.50200000
H      -45.24630000     -36.11840000     -68.15580000
C      -44.54450000     -36.84810000     -71.60630000
C      -44.88870000     -34.81370000     -72.83350000
C      -44.72800000     -35.80730000     -73.84590000
S      -44.50110000     -37.69370000     -70.04780000
S      -44.45700000     -37.42490000     -73.26570000
H      -44.78630000     -35.54290000     -74.87680000
