40
Properties=species:S:1:pos:R:3 #=T CELL(abcABC):=T 1.889726e+02=T 90.00000=T Traj:=T positionsangstrom=T Step:=T 0=T Bead:=T pbc="F F F"
C      -48.75920000     -34.54010000     -70.67260000
C      -48.54540000     -33.34340000     -69.94440000
C      -47.85920000     -33.45670000     -68.70670000
C      -47.19890000     -34.69100000     -68.36210000
C      -47.36560000     -35.82770000     -69.16510000
C      -48.30810000     -35.77250000     -70.23660000
H      -49.31030000     -34.50890000     -71.60510000
H      -47.63060000     -32.69910000     -67.97230000
H      -46.99450000     -36.80230000     -68.79080000
H      -48.42710000     -36.65830000     -70.88420000
C      -46.23090000     -34.68830000     -67.24160000
H      -46.17170000     -35.73910000     -66.99410000
H      -46.69970000     -34.14490000     -66.41440000
C      -48.98290000     -31.98500000     -70.45770000
H      -49.63590000     -31.97030000     -71.25190000
H      -49.33720000     -31.33360000     -69.58730000
S      -44.59190000     -33.97830000     -67.68000000
S      -47.34700000     -31.13290000     -71.14990000
C      -44.44170000     -34.18790000     -69.54770000
H      -43.91250000     -35.12740000     -69.94500000
H      -45.45460000     -34.39920000     -69.91840000
C      -47.12640000     -31.75000000     -72.79590000
H      -46.57680000     -31.08670000     -73.39420000
H      -48.14400000     -31.91580000     -73.16070000
C      -46.35070000     -33.14570000     -72.74650000
H      -46.21100000     -33.42120000     -71.74960000
H      -46.96000000     -33.87140000     -73.21350000
C      -43.85660000     -32.85930000     -70.20630000
H      -43.22950000     -32.45760000     -69.43840000
H      -44.57700000     -32.19630000     -70.45300000
C      -43.15470000     -33.13050000     -71.53390000
C      -41.79360000     -33.23030000     -71.57880000
C      -43.77200000     -33.32150000     -72.85020000
H      -41.16710000     -33.22700000     -70.70620000
C      -42.77490000     -33.44390000     -73.83360000
C      -45.03090000     -33.06150000     -73.48460000
C      -45.00170000     -33.02480000     -74.84790000
S      -41.14920000     -33.34780000     -73.23580000
S      -43.36020000     -33.23460000     -75.45470000
H      -45.79780000     -32.92920000     -75.54650000
