40
Properties=species:S:1:pos:R:3 #=T CELL(abcABC):=T 1.889726e+02=T 90.00000=T Traj:=T positionsangstrom=T Step:=T 0=T Bead:=T pbc="F F F"
C      -43.50200000     -29.79570000     -70.60560000
C      -44.32640000     -30.02240000     -71.76100000
C      -45.68640000     -30.29910000     -71.56580000
C      -46.24870000     -30.39830000     -70.27410000
C      -45.43810000     -30.05580000     -69.21660000
C      -44.07330000     -29.83780000     -69.37240000
H      -42.46500000     -29.70350000     -70.75770000
H      -46.32300000     -30.45230000     -72.35630000
H      -45.81460000     -30.14070000     -68.21360000
H      -43.48940000     -29.53760000     -68.50910000
C      -47.74490000     -30.63220000     -70.07870000
H      -48.29750000     -30.62760000     -71.06270000
H      -48.09220000     -29.74070000     -69.55930000
C      -43.84850000     -29.74760000     -73.23710000
H      -44.33440000     -28.91290000     -73.66240000
H      -42.74900000     -29.67590000     -73.30040000
S      -48.04270000     -32.13200000     -69.03220000
S      -44.31260000     -31.10150000     -74.33220000
C      -47.50550000     -33.65730000     -70.01190000
H      -48.18430000     -34.48200000     -69.96330000
H      -47.34000000     -33.35720000     -71.04220000
C      -43.86810000     -32.74140000     -73.56450000
H      -42.96430000     -32.69700000     -73.01470000
H      -43.76290000     -33.45080000     -74.38390000
C      -44.87240000     -33.29340000     -72.57220000
H      -44.63060000     -32.79600000     -71.62710000
H      -45.90060000     -32.96480000     -72.83860000
C      -46.11820000     -34.10200000     -69.42460000
H      -46.37110000     -34.18120000     -68.30040000
H      -45.25710000     -33.46180000     -69.63440000
C      -45.75670000     -35.40860000     -69.96930000
C      -45.83060000     -36.58520000     -69.33530000
C      -45.16490000     -35.57930000     -71.27870000
H      -46.19200000     -36.66140000     -68.30850000
C      -44.82650000     -36.95800000     -71.47540000
C      -44.78540000     -34.77680000     -72.44740000
C      -44.37710000     -35.57550000     -73.52040000
S      -45.19810000     -38.01330000     -70.15640000
S      -44.23270000     -37.26490000     -73.12370000
H      -44.15700000     -35.32350000     -74.50230000
