40
Properties=species:S:1:pos:R:3 #=T CELL(abcABC):=T 1.889726e+02=T 90.00000=T Traj:=T positionsangstrom=T Step:=T 0=T Bead:=T pbc="F F F"
C      -43.40250000     -30.36370000     -70.63520000
C      -44.32580000     -30.14220000     -71.61600000
C      -45.70190000     -30.13710000     -71.31330000
C      -46.18160000     -30.42830000     -70.01960000
C      -45.21660000     -30.67410000     -69.03420000
C      -43.81430000     -30.64280000     -69.29660000
H      -42.28180000     -30.48270000     -70.89560000
H      -46.39070000     -29.94270000     -72.15920000
H      -45.56050000     -30.90980000     -68.02580000
H      -43.09950000     -30.96820000     -68.53420000
C      -47.64660000     -30.61300000     -69.76620000
H      -48.09220000     -30.78940000     -70.75740000
H      -48.08260000     -29.69610000     -69.26690000
C      -43.81990000     -29.88230000     -73.03880000
H      -44.10400000     -28.89600000     -73.41340000
H      -42.75980000     -30.14770000     -72.94440000
S      -48.12800000     -32.04760000     -68.63950000
S      -44.44050000     -30.95360000     -74.32820000
C      -47.83610000     -33.49400000     -69.66140000
H      -48.20240000     -34.36460000     -69.16720000
H      -48.41190000     -33.32190000     -70.59410000
C      -43.98720000     -32.67700000     -73.80120000
H      -43.28350000     -32.67670000     -72.92140000
H      -43.63350000     -33.17190000     -74.70770000
C      -45.22270000     -33.49980000     -73.30670000
H      -45.74890000     -33.00570000     -72.53980000
H      -45.98250000     -33.52710000     -74.15030000
C      -46.31360000     -33.69450000     -69.95550000
H      -45.71900000     -33.55300000     -69.07110000
H      -45.99520000     -32.98290000     -70.66990000
C      -45.86370000     -35.12130000     -70.38270000
C      -46.05080000     -36.14080000     -69.50580000
C      -45.18020000     -35.53600000     -71.61230000
H      -46.26120000     -35.99800000     -68.46220000
C      -44.60030000     -36.86060000     -71.48610000
C      -44.84700000     -34.91180000     -72.92660000
C      -44.23930000     -35.80510000     -73.74420000
S      -45.18190000     -37.62530000     -70.04570000
S      -43.89260000     -37.38880000     -73.04680000
H      -43.97510000     -35.72420000     -74.76140000
