40
Properties=species:S:1:pos:R:3 #=T CELL(abcABC):=T 1.889726e+02=T 90.00000=T Traj:=T positionsangstrom=T Step:=T 0=T Bead:=T pbc="F F F"
C      -43.64210000     -29.51300000     -70.67760000
C      -44.36690000     -29.84100000     -71.80400000
C      -45.70600000     -30.28160000     -71.57830000
C      -46.29980000     -30.37170000     -70.31270000
C      -45.44530000     -30.15680000     -69.18260000
C      -44.18330000     -29.64090000     -69.42630000
H      -42.62300000     -29.11900000     -70.69100000
H      -46.27340000     -30.61490000     -72.44480000
H      -45.85130000     -30.28180000     -68.23630000
H      -43.49440000     -29.36470000     -68.64390000
C      -47.69490000     -30.79460000     -70.21340000
H      -48.11860000     -31.08670000     -71.17170000
H      -48.26470000     -29.92130000     -69.80050000
C      -43.68390000     -29.96380000     -73.08090000
H      -43.59130000     -28.94930000     -73.60050000
H      -42.59570000     -30.18990000     -72.95230000
S      -48.18240000     -32.17890000     -69.08000000
S      -44.46680000     -31.09240000     -74.34850000
C      -47.33660000     -33.56230000     -69.95530000
H      -48.02530000     -34.46820000     -69.89340000
H      -47.39780000     -33.29840000     -71.03110000
C      -43.95080000     -32.71000000     -73.62690000
H      -42.93110000     -32.63690000     -73.24610000
H      -43.82430000     -33.35120000     -74.58820000
C      -44.88310000     -33.32650000     -72.59540000
H      -44.73720000     -32.79770000     -71.65010000
H      -45.92290000     -33.11470000     -72.89370000
C      -45.94970000     -34.00890000     -69.33740000
H      -46.10020000     -34.26550000     -68.31710000
H      -45.19260000     -33.21520000     -69.25930000
C      -45.52070000     -35.36960000     -69.94810000
C      -45.49240000     -36.49130000     -69.21660000
C      -45.18900000     -35.66300000     -71.32850000
H      -45.67010000     -36.60150000     -68.15430000
C      -44.90810000     -37.05480000     -71.50190000
C      -44.78640000     -34.85560000     -72.46400000
C      -44.27680000     -35.59350000     -73.51340000
S      -45.10850000     -37.98050000     -70.08360000
S      -44.33120000     -37.34670000     -73.11260000
H      -43.91980000     -35.31400000     -74.47170000
