40
Properties=species:S:1:pos:R:3 #=T CELL(abcABC):=T 1.889726e+02=T 90.00000=T Traj:=T positionsangstrom=T Step:=T 0=T Bead:=T pbc="F F F"
C      -45.37830000     -36.04550000     -74.03590000
C      -46.01330000     -34.82690000     -74.40370000
C      -45.19640000     -33.66830000     -74.47270000
C      -43.81100000     -33.73990000     -74.30800000
C      -43.18270000     -34.96620000     -74.06990000
C      -43.98020000     -36.17020000     -73.91920000
H      -45.93170000     -36.94780000     -73.92950000
H      -45.71530000     -32.69480000     -74.74020000
H      -42.16480000     -35.00950000     -73.94860000
H      -43.37280000     -37.05730000     -73.61820000
C      -42.97580000     -32.49150000     -74.37840000
H      -42.98700000     -32.02670000     -75.37580000
H      -42.00650000     -32.82670000     -74.16610000
C      -47.46140000     -34.70800000     -74.67650000
H      -47.68330000     -34.27990000     -75.69150000
H      -47.91800000     -35.71110000     -74.67270000
S      -43.45690000     -31.10300000     -73.17290000
S      -48.43290000     -33.62930000     -73.52020000
C      -43.48170000     -31.97560000     -71.59410000
H      -43.95440000     -32.84900000     -71.92500000
H      -42.46450000     -32.22430000     -71.31580000
C      -47.62760000     -34.14040000     -71.93980000
H      -46.77350000     -34.84590000     -72.10260000
H      -48.41460000     -34.59640000     -71.25350000
C      -46.90430000     -32.98670000     -71.22950000
H      -46.09670000     -32.50100000     -71.79550000
H      -47.64460000     -32.18700000     -71.10340000
C      -44.26000000     -31.12170000     -70.63770000
H      -45.19740000     -30.75880000     -70.97780000
H      -43.62720000     -30.29400000     -70.53910000
C      -44.44300000     -31.80660000     -69.24690000
C      -43.51960000     -31.75330000     -68.20140000
C      -45.34180000     -32.90680000     -69.01140000
H      -42.72870000     -30.98100000     -68.24310000
C      -45.31720000     -33.44650000     -67.75550000
C      -46.36200000     -33.48090000     -69.82080000
C      -47.15620000     -34.36890000     -69.11830000
S      -44.02640000     -32.66660000     -66.84180000
S      -46.57220000     -34.66790000     -67.44940000
H      -47.90370000     -35.03040000     -69.49920000
