40
Properties=species:S:1:pos:R:3 #=T CELL(abcABC):=T 1.889726e+02=T 90.00000=T Traj:=T positionsangstrom=T Step:=T 0=T Bead:=T pbc="F F F"
C      -45.25410000     -36.01480000     -73.98770000
C      -45.87880000     -34.82540000     -74.36720000
C      -45.12070000     -33.65110000     -74.51070000
C      -43.75450000     -33.69850000     -74.19020000
C      -43.19640000     -34.93820000     -73.69980000
C      -43.94860000     -36.08250000     -73.59360000
H      -45.97520000     -36.82880000     -73.95220000
H      -45.44490000     -32.66410000     -74.76060000
H      -42.15600000     -34.86620000     -73.42300000
H      -43.54130000     -36.99600000     -73.19440000
C      -42.88770000     -32.49440000     -74.44780000
H      -42.96070000     -32.12400000     -75.44550000
H      -41.76330000     -32.72100000     -74.38350000
C      -47.33080000     -34.85900000     -74.70040000
H      -47.49430000     -34.42270000     -75.71610000
H      -47.66400000     -35.87850000     -74.70950000
S      -43.26670000     -31.07210000     -73.34630000
S      -48.30620000     -33.66830000     -73.59450000
C      -43.43670000     -32.01560000     -71.66020000
H      -44.10460000     -32.85700000     -71.94930000
H      -42.49780000     -32.30510000     -71.16930000
C      -47.88890000     -34.24370000     -71.84590000
H      -47.59700000     -35.26470000     -72.03250000
H      -48.85320000     -34.30500000     -71.34980000
C      -47.01540000     -33.15160000     -71.23630000
H      -46.19940000     -32.90520000     -71.92480000
H      -47.62140000     -32.23510000     -71.19860000
C      -44.21940000     -31.11360000     -70.69300000
H      -45.07260000     -30.84480000     -71.27760000
H      -43.48340000     -30.19800000     -70.56050000
C      -44.51290000     -31.76150000     -69.36040000
C      -43.67610000     -31.70260000     -68.25150000
C      -45.58030000     -32.73730000     -69.01450000
H      -42.65240000     -31.13600000     -68.29550000
C      -45.44900000     -33.34970000     -67.75430000
C      -46.57420000     -33.46730000     -69.79210000
C      -47.27120000     -34.35770000     -69.03320000
S      -44.10520000     -32.68270000     -66.87850000
S      -46.57080000     -34.67710000     -67.42840000
H      -48.17630000     -34.86140000     -69.29150000
