40
Properties=species:S:1:pos:R:3 #=T CELL(abcABC):=T 1.889726e+02=T 90.00000=T Traj:=T positionsangstrom=T Step:=T 0=T Bead:=T pbc="F F F"
C      -45.21680000     -35.94310000     -73.62370000
C      -45.76110000     -34.86670000     -74.33830000
C      -44.98180000     -33.79910000     -74.69840000
C      -43.61530000     -33.75710000     -74.27330000
C      -43.10930000     -34.88180000     -73.59690000
C      -43.87540000     -35.96400000     -73.28330000
H      -45.91180000     -36.77640000     -73.40630000
H      -45.33010000     -32.94350000     -75.25150000
H      -41.93820000     -34.78840000     -73.41590000
H      -43.40660000     -36.79070000     -72.80970000
C      -42.79740000     -32.50660000     -74.42690000
H      -42.87350000     -32.02030000     -75.38400000
H      -41.76010000     -32.75880000     -74.29150000
C      -47.20550000     -34.88820000     -74.69720000
H      -47.41660000     -34.79160000     -75.75930000
H      -47.60050000     -35.92920000     -74.37950000
S      -43.22250000     -31.09700000     -73.25570000
S      -48.27210000     -33.70030000     -73.84170000
C      -43.37360000     -31.94170000     -71.63690000
H      -43.41760000     -32.98720000     -71.74830000
H      -42.42170000     -31.88230000     -71.09320000
C      -48.11080000     -34.09310000     -71.97340000
H      -47.95280000     -35.19360000     -72.02070000
H      -49.08120000     -33.77900000     -71.57060000
C      -46.93910000     -33.33320000     -71.27620000
H      -46.05000000     -33.33140000     -71.88590000
H      -47.27510000     -32.29090000     -71.31820000
C      -44.43310000     -31.20200000     -70.77500000
H      -45.44380000     -31.07050000     -71.17290000
H      -44.13490000     -30.17540000     -70.61520000
C      -44.70600000     -31.81520000     -69.39850000
C      -43.80450000     -31.59530000     -68.36390000
C      -45.55330000     -32.93070000     -69.12220000
H      -42.81050000     -31.09980000     -68.29760000
C      -45.38660000     -33.42610000     -67.82880000
C      -46.58250000     -33.69250000     -69.82060000
C      -47.28390000     -34.45510000     -68.96870000
S      -44.20410000     -32.56980000     -66.90430000
S      -46.65380000     -34.49040000     -67.29140000
H      -48.22590000     -35.05850000     -69.20130000
