40
Properties=species:S:1:pos:R:3 #=T CELL(abcABC):=T 1.889726e+02=T 90.00000=T Traj:=T positionsangstrom=T Step:=T 0=T Bead:=T pbc="F F F"
C      -48.71930000     -34.46060000     -70.67070000
C      -48.54690000     -33.31620000     -69.93600000
C      -47.65110000     -33.41030000     -68.79410000
C      -47.15790000     -34.65020000     -68.39460000
C      -47.56680000     -35.87770000     -69.02970000
C      -48.32240000     -35.70880000     -70.17390000
H      -49.16820000     -34.45720000     -71.66890000
H      -47.43420000     -32.57090000     -68.17780000
H      -47.08050000     -36.76920000     -68.65250000
H      -48.64880000     -36.62860000     -70.72170000
C      -46.24390000     -34.72860000     -67.21020000
H      -46.01080000     -35.74180000     -66.92140000
H      -46.55790000     -34.26700000     -66.26430000
C      -48.93850000     -31.95790000     -70.45760000
H      -49.71450000     -32.09870000     -71.25870000
H      -49.46710000     -31.35550000     -69.64800000
S      -44.61850000     -33.80070000     -67.66960000
S      -47.51990000     -31.08660000     -71.13010000
C      -44.21340000     -34.31790000     -69.46630000
H      -43.27680000     -34.78290000     -69.38510000
H      -45.03060000     -34.95780000     -69.76790000
C      -47.21270000     -31.94420000     -72.77180000
H      -46.87660000     -31.16860000     -73.44280000
H      -48.25790000     -32.16110000     -73.17050000
C      -46.37110000     -33.23650000     -72.83860000
H      -46.11770000     -33.72530000     -71.83500000
H      -46.94540000     -33.97630000     -73.41490000
C      -43.99080000     -32.96500000     -70.29740000
H      -43.31280000     -32.31250000     -69.64280000
H      -44.94350000     -32.38970000     -70.41030000
C      -43.17660000     -33.12580000     -71.56120000
C      -41.84000000     -33.28170000     -71.57270000
C      -43.71900000     -33.10650000     -72.89670000
H      -41.29730000     -33.35440000     -70.64650000
C      -42.67160000     -33.16500000     -73.89790000
C      -45.02540000     -33.14300000     -73.54940000
C      -44.94200000     -33.26640000     -74.90710000
S      -41.15140000     -33.51090000     -73.16320000
S      -43.25840000     -33.17350000     -75.48970000
H      -45.82320000     -33.23860000     -75.61000000
