40
Properties=species:S:1:pos:R:3 #=T CELL(abcABC):=T 1.889726e+02=T 90.00000=T Traj:=T positionsangstrom=T Step:=T 0=T Bead:=T pbc="F F F"
C      -43.73050000     -29.88920000     -70.34170000
C      -44.55670000     -29.96620000     -71.47410000
C      -45.93310000     -30.16410000     -71.28630000
C      -46.47600000     -30.19750000     -70.03550000
C      -45.63130000     -30.05680000     -68.86100000
C      -44.26130000     -29.94680000     -69.04170000
H      -42.62080000     -29.83850000     -70.55430000
H      -46.61920000     -30.38280000     -72.20560000
H      -46.15480000     -30.03440000     -67.84810000
H      -43.56740000     -29.81880000     -68.17530000
C      -47.88470000     -30.56170000     -69.80170000
H      -48.53210000     -30.63590000     -70.68680000
H      -48.48310000     -30.02580000     -69.07830000
C      -44.03250000     -29.81270000     -72.92820000
H      -44.41320000     -28.81380000     -73.30650000
H      -42.93300000     -29.74920000     -72.93280000
S      -48.04140000     -32.40390000     -69.14600000
S      -44.49180000     -31.12420000     -74.15540000
C      -47.05970000     -33.52600000     -70.22170000
H      -47.65690000     -34.41960000     -70.02540000
H      -47.14650000     -33.28790000     -71.25010000
C      -44.24190000     -32.75740000     -73.20930000
H      -44.28570000     -32.47350000     -72.18870000
H      -43.38920000     -33.26920000     -73.59990000
C      -45.55680000     -33.55190000     -73.35700000
H      -46.24440000     -33.04390000     -72.69120000
H      -46.10260000     -33.60270000     -74.34860000
C      -45.60050000     -33.71910000     -69.80210000
H      -45.58040000     -33.58230000     -68.75550000
H      -44.98300000     -32.91490000     -70.24360000
C      -45.04690000     -35.08020000     -70.21980000
C      -44.74010000     -36.04110000     -69.32990000
C      -45.01700000     -35.55240000     -71.60080000
H      -44.56520000     -35.85320000     -68.32140000
C      -44.52550000     -36.88470000     -71.63720000
C      -45.29880000     -35.07740000     -72.95230000
C      -45.17630000     -36.10390000     -73.87230000
S      -44.20260000     -37.58820000     -70.05360000
S      -44.68080000     -37.62440000     -73.18920000
H      -45.31820000     -36.01130000     -74.88990000
