40
Properties=species:S:1:pos:R:3 #=T CELL(abcABC):=T 1.889726e+02=T 90.00000=T Traj:=T positionsangstrom=T Step:=T 0=T Bead:=T pbc="F F F"
C      -47.79170000     -35.36710000     -68.10410000
C      -46.88630000     -35.55360000     -69.15650000
C      -45.54510000     -35.25060000     -69.03570000
C      -45.06810000     -34.72650000     -67.83620000
C      -45.94770000     -34.57400000     -66.72880000
C      -47.31010000     -34.79850000     -66.89220000
H      -48.88700000     -35.53970000     -68.23310000
H      -44.80930000     -35.46260000     -69.77050000
H      -45.53630000     -34.25250000     -65.75240000
H      -48.03550000     -34.45960000     -66.24660000
C      -43.60480000     -34.41230000     -67.58290000
H      -43.30620000     -35.24310000     -66.95960000
H      -43.39430000     -33.58790000     -66.89060000
C      -47.40320000     -36.23080000     -70.43200000
H      -46.66220000     -36.44890000     -71.22690000
H      -47.99260000     -37.12430000     -70.23900000
S      -42.43390000     -34.27590000     -68.92860000
S      -48.61190000     -35.00510000     -71.21480000
C      -43.04380000     -32.72670000     -69.82470000
H      -43.71020000     -32.24710000     -69.14350000
H      -42.13140000     -32.08380000     -69.85200000
C      -47.44810000     -33.76360000     -72.07540000
H      -46.88180000     -33.27730000     -71.28190000
H      -48.24190000     -33.12600000     -72.54350000
C      -46.47400000     -34.37760000     -73.14910000
H      -45.81030000     -35.07500000     -72.67480000
H      -47.05710000     -35.00610000     -73.83810000
C      -43.58420000     -33.19020000     -71.19790000
H      -44.42020000     -33.80010000     -70.92020000
H      -42.93640000     -33.80580000     -71.79580000
C      -43.84420000     -32.08370000     -72.21900000
C      -42.99110000     -31.01610000     -72.36130000
C      -44.74210000     -32.25940000     -73.38780000
H      -42.23810000     -30.65840000     -71.67220000
C      -44.55400000     -31.23750000     -74.27400000
C      -45.77120000     -33.20040000     -73.85040000
C      -46.30930000     -32.82500000     -75.06190000
S      -43.36320000     -30.02370000     -73.81630000
S      -45.65750000     -31.27630000     -75.65370000
H      -47.20360000     -33.26250000     -75.48730000
