40
Properties=species:S:1:pos:R:3 #=T CELL(abcABC):=T 1.889726e+02=T 90.00000=T Traj:=T positionsangstrom=T Step:=T 0=T Bead:=T pbc="F F F"
C      -46.56050000     -34.82010000     -74.40120000
C      -47.44700000     -33.83050000     -73.91000000
C      -46.98770000     -32.49910000     -73.89900000
C      -45.67320000     -32.17070000     -74.27270000
C      -44.83780000     -33.23260000     -74.72360000
C      -45.22700000     -34.56010000     -74.73550000
H      -46.96850000     -35.80650000     -74.56280000
H      -47.72400000     -31.65160000     -73.50570000
H      -43.80180000     -33.05110000     -74.88160000
H      -44.61970000     -35.32850000     -75.02230000
C      -45.26260000     -30.74920000     -74.48610000
H      -46.01180000     -30.16050000     -74.89640000
H      -44.44510000     -30.63950000     -75.22270000
C      -48.81420000     -34.20700000     -73.42340000
H      -49.35640000     -33.27580000     -73.50560000
H      -49.25440000     -34.89650000     -74.17200000
S      -44.68670000     -29.98390000     -72.94020000
S      -48.95890000     -35.02460000     -71.84350000
C      -44.00180000     -31.37350000     -71.86170000
H      -43.74980000     -32.32410000     -72.38740000
H      -43.07940000     -30.99160000     -71.36890000
C      -47.70780000     -34.27090000     -70.65170000
H      -47.96220000     -34.60610000     -69.62440000
H      -47.91090000     -33.21390000     -70.72350000
C      -46.25680000     -34.72030000     -70.93100000
H      -46.37590000     -35.77270000     -71.27690000
H      -45.77600000     -34.24430000     -71.82120000
C      -44.99860000     -31.62110000     -70.70890000
H      -45.79360000     -32.32300000     -70.96280000
H      -45.55370000     -30.76390000     -70.36570000
C      -44.25200000     -32.32660000     -69.64500000
C      -43.25310000     -31.77630000     -68.92510000
C      -44.39230000     -33.67490000     -69.33710000
H      -43.10930000     -30.68000000     -68.98450000
C      -43.41280000     -34.13860000     -68.45810000
C      -45.14820000     -34.77340000     -69.92320000
C      -44.79220000     -35.97610000     -69.30080000
S      -42.53480000     -32.81480000     -67.77530000
S      -43.39240000     -35.89110000     -68.19690000
H      -45.04290000     -36.94340000     -69.65270000
