40
Properties=species:S:1:pos:R:3 #=T CELL(abcABC):=T 1.889726e+02=T 90.00000=T Traj:=T positionsangstrom=T Step:=T 0=T Bead:=T pbc="F F F"
C      -46.32780000     -34.87870000     -74.20680000
C      -47.28100000     -33.87900000     -73.84190000
C      -46.95970000     -32.56220000     -73.88360000
C      -45.70290000     -32.12470000     -74.31840000
C      -44.79940000     -33.10560000     -74.70350000
C      -45.09810000     -34.44070000     -74.60020000
H      -46.56640000     -35.91260000     -73.97230000
H      -47.74080000     -31.87540000     -73.59070000
H      -43.84360000     -32.83530000     -75.16320000
H      -44.34330000     -35.07180000     -74.97330000
C      -45.38750000     -30.64700000     -74.37370000
H      -46.32570000     -30.14310000     -74.33710000
H      -44.93660000     -30.43720000     -75.44520000
C      -48.64700000     -34.23930000     -73.54160000
H      -49.38450000     -33.39880000     -73.63880000
H      -49.01490000     -35.04780000     -74.14590000
S      -44.56330000     -29.72570000     -72.99570000
S      -48.97320000     -34.95190000     -71.78030000
C      -44.00980000     -31.04890000     -71.84470000
H      -43.77320000     -31.97030000     -72.39400000
H      -43.07240000     -30.69680000     -71.35540000
C      -47.60850000     -34.45950000     -70.68740000
H      -47.86130000     -34.85030000     -69.69330000
H      -47.65110000     -33.35770000     -70.78750000
C      -46.26810000     -34.98280000     -71.13860000
H      -46.40960000     -36.01090000     -71.37270000
H      -45.99400000     -34.45450000     -72.05810000
C      -45.02090000     -31.37490000     -70.65630000
H      -46.03220000     -31.75420000     -71.00210000
H      -45.23930000     -30.41420000     -70.11820000
C      -44.38370000     -32.34600000     -69.61440000
C      -43.45680000     -31.78640000     -68.75550000
C      -44.40710000     -33.79850000     -69.42330000
H      -43.16900000     -30.74090000     -68.71890000
C      -43.53650000     -34.25060000     -68.43860000
C      -45.21320000     -34.88370000     -69.99140000
C      -44.92650000     -36.08930000     -69.27990000
S      -42.49150000     -33.01800000     -67.90100000
S      -43.53670000     -35.97190000     -68.21130000
H      -45.33500000     -37.08530000     -69.46520000
