40
Properties=species:S:1:pos:R:3 #=T CELL(abcABC):=T 1.889726e+02=T 90.00000=T Traj:=T positionsangstrom=T Step:=T 0=T Bead:=T pbc="F F F"
C      -44.81780000     -35.11690000     -67.89180000
C      -45.79920000     -35.38790000     -68.90120000
C      -46.92990000     -34.56780000     -69.05070000
C      -47.07800000     -33.42970000     -68.27930000
C      -46.11950000     -33.10470000     -67.31600000
C      -45.04470000     -33.99570000     -67.10220000
H      -43.92540000     -35.68720000     -67.85410000
H      -47.74290000     -34.77190000     -69.78600000
H      -46.25350000     -32.26230000     -66.62120000
H      -44.43610000     -33.87740000     -66.20660000
C      -48.19510000     -32.52090000     -68.45270000
H      -48.06800000     -31.63260000     -67.88590000
H      -49.13010000     -32.93490000     -68.09340000
C      -45.58270000     -36.61140000     -69.69070000
H      -45.01850000     -37.33760000     -69.13750000
H      -46.47940000     -37.14090000     -70.01660000
S      -48.53050000     -32.18230000     -70.24070000
S      -44.39060000     -36.37720000     -71.13840000
C      -46.81170000     -31.81220000     -70.76480000
H      -46.44840000     -30.87700000     -70.43120000
H      -46.16880000     -32.58940000     -70.44500000
C      -45.56700000     -36.15840000     -72.55890000
H      -46.46250000     -36.76020000     -72.28240000
H      -45.12150000     -36.67070000     -73.41280000
C      -45.94970000     -34.74560000     -72.95070000
H      -46.66480000     -34.80170000     -73.79830000
H      -46.44090000     -34.24280000     -72.16580000
C      -46.82880000     -31.72930000     -72.22950000
H      -47.40180000     -30.86880000     -72.39020000
H      -47.25650000     -32.56200000     -72.86070000
C      -45.47780000     -31.44490000     -72.73700000
C      -44.93280000     -30.23250000     -72.67790000
C      -44.64580000     -32.46770000     -73.35710000
H      -45.40990000     -29.33200000     -72.40180000
C      -43.39710000     -32.02210000     -73.69270000
C      -44.76800000     -33.93690000     -73.43530000
C      -43.55400000     -34.50530000     -73.79870000
S      -43.30690000     -30.30830000     -73.38350000
S      -42.25180000     -33.28120000     -74.03790000
H      -43.40080000     -35.55810000     -74.13200000
