40
Properties=species:S:1:pos:R:3 #=T CELL(abcABC):=T 1.889726e+02=T 90.00000=T Traj:=T positionsangstrom=T Step:=T 0=T Bead:=T pbc="F F F"
C      -44.85570000     -35.21260000     -67.80240000
C      -45.80990000     -35.53520000     -68.77960000
C      -46.97610000     -34.75850000     -68.97190000
C      -47.14880000     -33.61000000     -68.19450000
C      -46.19820000     -33.27540000     -67.22460000
C      -45.06230000     -34.03850000     -67.04280000
H      -43.94170000     -35.73440000     -67.70130000
H      -47.68850000     -35.04000000     -69.71450000
H      -46.39920000     -32.39210000     -66.61780000
H      -44.31040000     -33.77680000     -66.27010000
C      -48.44480000     -32.83160000     -68.39250000
H      -48.49650000     -31.93930000     -67.72890000
H      -49.41970000     -33.36740000     -68.09200000
C      -45.53700000     -36.69510000     -69.81090000
H      -45.22890000     -37.69350000     -69.38450000
H      -46.49980000     -36.87280000     -70.34140000
S      -48.70490000     -32.23570000     -70.11110000
S      -44.36230000     -36.17050000     -71.09140000
C      -47.13150000     -31.52270000     -70.83870000
H      -46.86450000     -30.45810000     -70.49770000
H      -46.25700000     -32.07410000     -70.34200000
C      -45.38190000     -36.26950000     -72.66830000
H      -46.25710000     -36.88170000     -72.41450000
H      -44.80540000     -36.80750000     -73.39650000
C      -45.78470000     -34.88500000     -73.23550000
H      -46.40030000     -35.01930000     -74.16310000
H      -46.39410000     -34.37710000     -72.48110000
C      -46.93000000     -31.51140000     -72.31840000
H      -47.44030000     -30.63570000     -72.74560000
H      -47.21260000     -32.48390000     -72.81310000
C      -45.44700000     -31.40200000     -72.73030000
C      -44.83980000     -30.21760000     -72.83770000
C      -44.56310000     -32.46550000     -73.19340000
H      -45.32510000     -29.31870000     -72.58050000
C      -43.30270000     -32.03450000     -73.51950000
C      -44.67170000     -33.93360000     -73.49790000
C      -43.49200000     -34.38520000     -74.09310000
S      -43.11740000     -30.31910000     -73.12210000
S      -42.25400000     -33.11620000     -74.31770000
H      -43.27110000     -35.35620000     -74.51890000
