40
Properties=species:S:1:pos:R:3 #=T CELL(abcABC):=T 1.889726e+02=T 90.00000=T Traj:=T positionsangstrom=T Step:=T 0=T Bead:=T pbc="F F F"
C      -46.28210000     -34.69800000     -74.26880000
C      -47.28630000     -33.79350000     -73.89500000
C      -46.99100000     -32.40860000     -73.83090000
C      -45.74160000     -31.94940000     -74.13810000
C      -44.73170000     -32.90970000     -74.47210000
C      -44.96710000     -34.30240000     -74.60120000
H      -46.59670000     -35.73620000     -74.40400000
H      -47.75640000     -31.80310000     -73.58840000
H      -43.66660000     -32.62740000     -74.67900000
H      -44.21210000     -35.05890000     -74.89900000
C      -45.41550000     -30.50180000     -74.39340000
H      -46.35220000     -29.89380000     -74.52430000
H      -44.74880000     -30.49330000     -75.18490000
C      -48.68400000     -34.26360000     -73.46270000
H      -49.36100000     -33.44300000     -73.48850000
H      -49.01520000     -35.01650000     -74.17430000
S      -44.62940000     -29.77300000     -72.87900000
S      -48.92460000     -35.01460000     -71.76430000
C      -44.13760000     -31.17760000     -71.75890000
H      -43.90360000     -31.99640000     -72.41290000
H      -43.17990000     -30.82950000     -71.36710000
C      -47.56710000     -34.25300000     -70.75430000
H      -47.66370000     -34.47700000     -69.70900000
H      -47.64070000     -33.15230000     -70.70870000
C      -46.14790000     -34.70080000     -71.23480000
H      -46.31990000     -35.69810000     -71.73760000
H      -45.73860000     -34.02980000     -72.04860000
C      -45.10850000     -31.61960000     -70.70520000
H      -45.87370000     -32.13470000     -71.23430000
H      -45.44790000     -30.80250000     -70.17530000
C      -44.30400000     -32.45090000     -69.78400000
C      -43.29240000     -31.93420000     -69.03020000
C      -44.35980000     -33.90410000     -69.54130000
H      -42.98250000     -30.94290000     -69.02870000
C      -43.59690000     -34.30140000     -68.44360000
C      -45.14850000     -34.97990000     -70.11470000
C      -44.87300000     -36.19330000     -69.43390000
S      -42.46340000     -33.05110000     -67.90250000
S      -43.72060000     -36.06360000     -68.10620000
H      -45.48130000     -37.07740000     -69.67030000
