40
Properties=species:S:1:pos:R:3 #=T CELL(abcABC):=T 1.889726e+02=T 90.00000=T Traj:=T positionsangstrom=T Step:=T 0=T Bead:=T pbc="F F F"
C      -47.23810000     -35.47740000     -74.45980000
C      -47.59860000     -34.41100000     -73.56560000
C      -46.90660000     -33.20690000     -73.76140000
C      -45.91380000     -33.06180000     -74.76310000
C      -45.51010000     -34.15780000     -75.49570000
C      -46.20790000     -35.36690000     -75.36450000
H      -47.69560000     -36.43370000     -74.38510000
H      -47.12210000     -32.34800000     -73.19220000
H      -44.75960000     -33.99640000     -76.25050000
H      -45.91140000     -36.23890000     -75.95270000
C      -45.30990000     -31.73920000     -75.13090000
H      -45.92630000     -31.38870000     -75.97370000
H      -44.31330000     -31.88900000     -75.55360000
C      -48.69230000     -34.69700000     -72.55720000
H      -48.90720000     -33.83730000     -71.99460000
H      -49.56670000     -35.16420000     -73.18780000
S      -45.42030000     -30.54290000     -73.72480000
S      -48.19650000     -35.94780000     -71.27400000
C      -44.38770000     -31.39080000     -72.38690000
H      -44.06750000     -32.38760000     -72.74770000
H      -43.52940000     -30.73950000     -72.33850000
C      -47.21510000     -34.94690000     -70.07180000
H      -47.20480000     -35.40570000     -69.06690000
H      -47.71660000     -34.06670000     -69.88060000
C      -45.78860000     -34.69730000     -70.62190000
H      -45.61030000     -35.54440000     -71.26070000
H      -45.95960000     -33.73470000     -71.14710000
C      -45.14420000     -31.38810000     -71.06880000
H      -46.12240000     -31.96690000     -71.09250000
H      -45.51130000     -30.35900000     -70.90270000
C      -44.35630000     -31.71330000     -69.84680000
C      -43.55010000     -30.78770000     -69.16600000
C      -44.31050000     -33.03420000     -69.25710000
H      -43.52880000     -29.74270000     -69.46630000
C      -43.23400000     -33.07150000     -68.31670000
C      -44.69050000     -34.43120000     -69.53860000
C      -44.06220000     -35.42080000     -68.80360000
S      -42.57580000     -31.56070000     -67.92470000
S      -42.93000000     -34.65100000     -67.60660000
H      -44.40490000     -36.47190000     -68.78740000
