40
Properties=species:S:1:pos:R:3 #=T CELL(abcABC):=T 1.889726e+02=T 90.00000=T Traj:=T positionsangstrom=T Step:=T 0=T Bead:=T pbc="F F F"
C      -47.52870000     -35.09960000     -74.78810000
C      -47.75580000     -34.12320000     -73.78540000
C      -47.08480000     -32.89210000     -73.71250000
C      -46.18620000     -32.56340000     -74.76940000
C      -46.01720000     -33.56030000     -75.79770000
C      -46.64070000     -34.79630000     -75.78740000
H      -48.07040000     -36.03290000     -74.67690000
H      -47.28340000     -32.21570000     -72.95580000
H      -45.45220000     -33.25590000     -76.69210000
H      -46.42150000     -35.51920000     -76.62700000
C      -45.33620000     -31.30960000     -74.96450000
H      -45.84300000     -30.61210000     -75.77630000
H      -44.32980000     -31.57660000     -75.35540000
C      -48.67560000     -34.46810000     -72.69230000
H      -49.21520000     -33.67700000     -72.19900000
H      -49.59940000     -34.96460000     -73.20200000
S      -44.97670000     -30.29540000     -73.45770000
S      -48.03180000     -35.75910000     -71.55680000
C      -44.27970000     -31.50730000     -72.25870000
H      -44.22810000     -32.43350000     -72.76330000
H      -43.20960000     -31.18170000     -72.07980000
C      -46.78620000     -34.97960000     -70.37760000
H      -46.86650000     -35.25560000     -69.32950000
H      -46.93780000     -33.94650000     -70.39750000
C      -45.31590000     -35.16200000     -70.83390000
H      -45.10470000     -36.18290000     -71.02500000
H      -45.20730000     -34.51340000     -71.75360000
C      -45.14700000     -31.64770000     -71.00080000
H      -45.99260000     -32.33940000     -71.21740000
H      -45.57720000     -30.67720000     -70.76170000
C      -44.37500000     -32.05280000     -69.70920000
C      -43.80440000     -31.10110000     -68.89740000
C      -44.09320000     -33.34500000     -69.26450000
H      -43.79520000     -30.01550000     -69.03800000
C      -43.31380000     -33.40470000     -68.07280000
C      -44.45550000     -34.67740000     -69.66450000
C      -43.91920000     -35.65610000     -68.86020000
S      -42.81310000     -31.86220000     -67.57980000
S      -43.10080000     -35.04880000     -67.48420000
H      -43.96650000     -36.72910000     -69.06340000
