40
Properties=species:S:1:pos:R:3 #=T CELL(abcABC):=T 1.889726e+02=T 90.00000=T Traj:=T positionsangstrom=T Step:=T 0=T Bead:=T pbc="F F F"
C      -47.21550000     -35.47790000     -74.37110000
C      -47.60030000     -34.38540000     -73.59890000
C      -47.05520000     -33.11560000     -73.83310000
C      -46.03780000     -32.92220000     -74.76180000
C      -45.81720000     -33.98690000     -75.64250000
C      -46.33320000     -35.27080000     -75.48310000
H      -47.73670000     -36.41950000     -74.27590000
H      -47.36730000     -32.24530000     -73.25290000
H      -45.14390000     -33.87140000     -76.43820000
H      -46.05720000     -36.12830000     -76.10230000
C      -45.33480000     -31.64370000     -74.94640000
H      -45.78550000     -31.05850000     -75.76520000
H      -44.31680000     -31.86770000     -75.28450000
C      -48.61180000     -34.44960000     -72.44900000
H      -48.73830000     -33.52160000     -71.96080000
H      -49.64330000     -34.52270000     -72.82830000
S      -45.28880000     -30.43000000     -73.60600000
S      -48.23890000     -35.80240000     -71.31110000
C      -44.41800000     -31.32060000     -72.27120000
H      -44.15980000     -32.31140000     -72.64060000
H      -43.43020000     -30.76340000     -72.03280000
C      -46.98350000     -35.06180000     -70.22380000
H      -46.90440000     -35.74740000     -69.34800000
H      -47.37850000     -34.03170000     -69.91100000
C      -45.59630000     -35.00070000     -70.80220000
H      -45.26180000     -36.02580000     -71.16090000
H      -45.38630000     -34.23910000     -71.54690000
C      -45.25830000     -31.43250000     -70.96120000
H      -45.99140000     -32.25730000     -71.12930000
H      -45.69940000     -30.51390000     -70.71630000
C      -44.32030000     -31.78390000     -69.88110000
C      -43.52100000     -30.88540000     -69.17610000
C      -44.05950000     -33.16390000     -69.45380000
H      -43.50270000     -29.79610000     -69.30910000
C      -43.21320000     -33.19200000     -68.35530000
C      -44.58510000     -34.53790000     -69.65260000
C      -44.11030000     -35.46640000     -68.77580000
S      -42.62560000     -31.62770000     -67.85460000
S      -43.01430000     -34.80290000     -67.60540000
H      -44.46790000     -36.48600000     -68.83520000
