40
Properties=species:S:1:pos:R:3 #=T CELL(abcABC):=T 1.889726e+02=T 90.00000=T Traj:=T positionsangstrom=T Step:=T 0=T Bead:=T pbc="F F F"
C      -44.76070000     -35.06450000     -67.91950000
C      -45.78850000     -35.50710000     -68.70440000
C      -46.87440000     -34.63270000     -68.90070000
C      -46.90670000     -33.39510000     -68.23740000
C      -45.86470000     -32.95530000     -67.34390000
C      -44.85680000     -33.85050000     -67.22570000
H      -43.97890000     -35.84320000     -67.69920000
H      -47.60130000     -34.79330000     -69.67340000
H      -45.96320000     -32.11760000     -66.67600000
H      -43.98410000     -33.60170000     -66.61470000
C      -48.00940000     -32.38830000     -68.47000000
H      -47.74790000     -31.40890000     -68.18490000
H      -48.94710000     -32.56810000     -67.92960000
C      -45.76720000     -36.78300000     -69.47490000
H      -45.46690000     -37.59260000     -68.81840000
H      -46.74740000     -36.99670000     -69.78680000
S      -48.51420000     -32.08480000     -70.26780000
S      -44.65790000     -36.77100000     -70.99580000
C      -46.85890000     -31.46210000     -70.86440000
H      -46.69770000     -30.53290000     -70.33550000
H      -45.98360000     -32.03310000     -70.60010000
C      -45.80960000     -36.27650000     -72.40400000
H      -46.81220000     -36.61340000     -72.14970000
H      -45.57990000     -36.80720000     -73.35020000
C      -45.93260000     -34.71980000     -72.60640000
H      -46.69910000     -34.63960000     -73.36650000
H      -46.32250000     -34.21140000     -71.69730000
C      -46.83900000     -31.32960000     -72.46980000
H      -47.37200000     -30.35010000     -72.65400000
H      -47.41250000     -32.08840000     -72.98810000
C      -45.46900000     -31.28190000     -73.00180000
C      -44.99380000     -30.08330000     -73.46720000
C      -44.62340000     -32.46600000     -73.15190000
H      -45.61520000     -29.13980000     -73.52440000
C      -43.33090000     -32.04310000     -73.57130000
C      -44.72920000     -33.90530000     -73.02680000
C      -43.56240000     -34.54980000     -73.35960000
S      -43.26700000     -30.38210000     -73.99600000
S      -42.21870000     -33.41400000     -73.81670000
H      -43.45940000     -35.62850000     -73.29060000
