40
Properties=species:S:1:pos:R:3 #=T CELL(abcABC):=T 1.889726e+02=T 90.00000=T Traj:=T positionsangstrom=T Step:=T 0=T Bead:=T pbc="F F F"
C      -44.65620000     -33.99040000     -67.69050000
C      -45.69760000     -34.74310000     -68.28980000
C      -46.86980000     -34.02450000     -68.60990000
C      -47.07940000     -32.67370000     -68.27860000
C      -46.01830000     -31.93550000     -67.69100000
C      -44.79060000     -32.61600000     -67.54110000
H      -43.72750000     -34.44130000     -67.31790000
H      -47.58010000     -34.57220000     -69.20990000
H      -46.26690000     -30.92730000     -67.43180000
H      -43.81930000     -32.10970000     -67.25050000
C      -48.31800000     -31.98830000     -68.59130000
H      -48.67380000     -31.36430000     -67.77250000
H      -49.17560000     -32.57820000     -68.93060000
C      -45.35910000     -36.19390000     -68.63480000
H      -44.61140000     -36.45610000     -67.93700000
H      -46.21550000     -36.75700000     -68.54550000
S      -48.04900000     -30.77460000     -70.14980000
S      -44.83820000     -36.54560000     -70.37900000
C      -46.45770000     -31.17990000     -71.01390000
H      -45.75510000     -30.38230000     -70.74190000
H      -46.16340000     -32.07710000     -70.43480000
C      -46.30930000     -36.17440000     -71.38570000
H      -47.13650000     -36.19620000     -70.74720000
H      -46.56540000     -37.00230000     -72.05080000
C      -46.29340000     -34.80160000     -72.10670000
H      -47.18030000     -34.60830000     -72.79040000
H      -46.45330000     -34.03420000     -71.33310000
C      -46.43650000     -31.38910000     -72.53840000
H      -46.60510000     -30.39750000     -73.05620000
H      -47.18820000     -32.00040000     -73.06480000
C      -45.03270000     -31.78000000     -73.06120000
C      -44.21940000     -30.80540000     -73.66200000
C      -44.52540000     -33.11150000     -73.22080000
H      -44.48850000     -29.75070000     -73.89880000
C      -43.41470000     -33.16070000     -74.13450000
C      -45.10730000     -34.42190000     -72.99420000
C      -44.40790000     -35.40140000     -73.68360000
S      -42.78880000     -31.57030000     -74.50060000
S      -42.98260000     -34.77600000     -74.55230000
H      -44.56500000     -36.46970000     -73.52440000
