40
Properties=species:S:1:pos:R:3 #=T CELL(abcABC):=T 1.889726e+02=T 90.00000=T Traj:=T positionsangstrom=T Step:=T 0=T Bead:=T pbc="F F F"
C      -44.42510000     -33.81190000     -67.51070000
C      -45.41480000     -34.51670000     -68.15690000
C      -46.51480000     -33.69480000     -68.62980000
C      -46.67630000     -32.30640000     -68.34390000
C      -45.63650000     -31.70140000     -67.53500000
C      -44.51200000     -32.42630000     -67.19000000
H      -43.58450000     -34.43480000     -67.21100000
H      -47.32520000     -34.08990000     -69.20460000
H      -45.62630000     -30.63430000     -67.34220000
H      -43.79740000     -32.00140000     -66.47630000
C      -47.83210000     -31.50450000     -68.95790000
H      -48.37490000     -30.91980000     -68.20880000
H      -48.57240000     -32.14760000     -69.38030000
C      -45.19580000     -36.05960000     -68.46000000
H      -44.36100000     -36.39630000     -67.73660000
H      -46.09650000     -36.64510000     -68.14010000
S      -47.21040000     -30.21210000     -70.09310000
S      -44.74750000     -36.50660000     -70.15570000
C      -45.87780000     -31.06500000     -71.18820000
H      -45.07600000     -30.36440000     -71.34380000
H      -45.46470000     -31.91090000     -70.61660000
C      -46.47630000     -36.16300000     -71.05340000
H      -47.24810000     -36.18010000     -70.26180000
H      -46.55290000     -36.99180000     -71.82470000
C      -46.49480000     -34.89940000     -71.83120000
H      -47.44150000     -34.78940000     -72.38790000
H      -46.53750000     -34.08820000     -71.15510000
C      -46.59380000     -31.56480000     -72.47980000
H      -47.16590000     -30.80600000     -72.96280000
H      -47.19780000     -32.37650000     -72.18630000
C      -45.48750000     -32.02130000     -73.37600000
C      -44.81280000     -31.14570000     -74.19620000
C      -45.04200000     -33.37320000     -73.44210000
H      -44.97250000     -30.11560000     -74.23440000
C      -43.99010000     -33.47420000     -74.39870000
C      -45.27910000     -34.61560000     -72.69990000
C      -44.44770000     -35.65910000     -73.14570000
S      -43.50950000     -31.97940000     -75.16990000
S      -43.37410000     -35.12990000     -74.44270000
H      -44.33950000     -36.72380000     -72.80940000
