40
Properties=species:S:1:pos:R:3 #=T CELL(abcABC):=T 1.889726e+02=T 90.00000=T Traj:=T positionsangstrom=T Step:=T 0=T Bead:=T pbc="F F F"
C      -46.99890000     -36.26310000     -73.32050000
C      -47.73040000     -35.06270000     -73.16050000
C      -47.40640000     -34.00040000     -74.00750000
C      -46.26280000     -34.05960000     -74.83470000
C      -45.60530000     -35.31510000     -74.98910000
C      -45.97490000     -36.40870000     -74.21130000
H      -47.11320000     -37.07720000     -72.56920000
H      -47.92820000     -33.07360000     -73.96690000
H      -44.75320000     -35.42610000     -75.71270000
H      -45.42800000     -37.38730000     -74.31100000
C      -45.83520000     -32.80270000     -75.50760000
H      -46.57130000     -32.44630000     -76.19410000
H      -44.92380000     -33.04790000     -76.04810000
C      -48.81940000     -35.04310000     -72.13320000
H      -49.12440000     -34.03450000     -71.94150000
H      -49.81800000     -35.54080000     -72.34200000
S      -45.43830000     -31.26980000     -74.45890000
S      -48.25170000     -35.81290000     -70.49390000
C      -44.56180000     -31.83450000     -72.97350000
H      -44.74250000     -32.86750000     -72.94700000
H      -43.40550000     -31.72520000     -73.02890000
C      -47.07370000     -34.52390000     -69.72770000
H      -47.08150000     -34.68550000     -68.66960000
H      -47.53960000     -33.51030000     -69.92270000
C      -45.69720000     -34.59620000     -70.29890000
H      -45.42720000     -35.65900000     -70.29180000
H      -45.63260000     -34.19110000     -71.30060000
C      -44.98970000     -31.06740000     -71.72640000
H      -45.99930000     -31.35490000     -71.65240000
H      -45.06910000     -29.97650000     -71.87650000
C      -44.11790000     -31.31540000     -70.46200000
C      -43.26420000     -30.32220000     -70.03090000
C      -44.04860000     -32.53160000     -69.65300000
H      -43.17930000     -29.34820000     -70.56530000
C      -43.13260000     -32.30530000     -68.56520000
C      -44.71010000     -33.84430000     -69.40190000
C      -44.19060000     -34.48600000     -68.30110000
S      -42.32070000     -30.79900000     -68.64430000
S      -42.99080000     -33.61720000     -67.31310000
H      -44.36650000     -35.49320000     -68.13630000
