40
Properties=species:S:1:pos:R:3 #=T CELL(abcABC):=T 1.889726e+02=T 90.00000=T Traj:=T positionsangstrom=T Step:=T 0=T Bead:=T pbc="F F F"
C      -47.36900000     -36.13630000     -73.37360000
C      -47.67310000     -34.78680000     -73.03220000
C      -46.98170000     -33.82620000     -73.81350000
C      -45.95020000     -34.08020000     -74.69770000
C      -45.67500000     -35.40490000     -74.94490000
C      -46.30700000     -36.41450000     -74.24090000
H      -47.81570000     -37.01610000     -72.81710000
H      -47.18150000     -32.74050000     -73.73520000
H      -44.83080000     -35.70040000     -75.58640000
H      -46.02320000     -37.49670000     -74.36330000
C      -45.35870000     -32.99330000     -75.54500000
H      -45.96980000     -32.80630000     -76.41420000
H      -44.37040000     -33.29370000     -75.99100000
C      -48.69530000     -34.47940000     -71.89400000
H      -48.74610000     -33.37560000     -71.69760000
H      -49.69690000     -34.76580000     -72.17060000
S      -45.19950000     -31.32900000     -74.61360000
S      -48.43070000     -35.43390000     -70.36200000
C      -44.08540000     -31.84500000     -73.23220000
H      -43.64510000     -32.77620000     -73.41400000
H      -43.34280000     -31.03530000     -73.12630000
C      -47.21120000     -34.38170000     -69.48740000
H      -47.28120000     -34.56570000     -68.42950000
H      -47.28360000     -33.28070000     -69.64010000
C      -45.83200000     -34.67760000     -70.02050000
H      -45.54640000     -35.72320000     -70.01040000
H      -45.77440000     -34.39990000     -71.06430000
C      -44.93110000     -31.89580000     -71.89340000
H      -45.56640000     -32.80320000     -71.83520000
H      -45.54280000     -30.97190000     -71.98130000
C      -44.11420000     -31.74940000     -70.66160000
C      -43.22930000     -30.74250000     -70.48770000
C      -44.14090000     -32.71260000     -69.56080000
H      -43.13430000     -29.90610000     -71.15610000
C      -43.23520000     -32.32060000     -68.56300000
C      -44.77990000     -33.97800000     -69.21370000
C      -44.34850000     -34.43430000     -68.00650000
S      -42.43900000     -30.86300000     -68.94280000
S      -43.17350000     -33.43020000     -67.24570000
H      -44.65690000     -35.44570000     -67.54780000
