40
Properties=species:S:1:pos:R:3 #=T CELL(abcABC):=T 1.889726e+02=T 90.00000=T Traj:=T positionsangstrom=T Step:=T 0=T Bead:=T pbc="F F F"
C      -47.11790000     -36.23460000     -73.42740000
C      -47.59090000     -34.97440000     -72.97470000
C      -47.04800000     -33.85090000     -73.64630000
C      -46.14070000     -34.04060000     -74.70320000
C      -45.68050000     -35.30090000     -75.06350000
C      -46.21250000     -36.42060000     -74.46600000
H      -47.35450000     -37.14250000     -72.92950000
H      -47.33270000     -32.81840000     -73.40680000
H      -44.86910000     -35.45470000     -75.75180000
H      -45.88610000     -37.35540000     -74.77090000
C      -45.52170000     -32.87770000     -75.48550000
H      -46.19470000     -32.52340000     -76.28320000
H      -44.55800000     -33.18640000     -75.89850000
C      -48.67800000     -34.68710000     -71.98770000
H      -48.74510000     -33.57490000     -71.83190000
H      -49.61270000     -34.94340000     -72.46700000
S      -45.26070000     -31.35350000     -74.48980000
S      -48.35360000     -35.64030000     -70.41900000
C      -44.28880000     -31.94330000     -73.13440000
H      -44.10440000     -33.03770000     -73.13000000
H      -43.37850000     -31.43910000     -73.18850000
C      -47.18270000     -34.50020000     -69.46430000
H      -47.27800000     -34.70760000     -68.39200000
H      -47.57390000     -33.48600000     -69.58620000
C      -45.79430000     -34.64860000     -70.10860000
H      -45.50600000     -35.70350000     -70.25470000
H      -45.90060000     -34.24040000     -71.10760000
C      -45.02810000     -31.51520000     -71.81120000
H      -45.83630000     -32.25470000     -71.64670000
H      -45.35990000     -30.45850000     -71.93660000
C      -44.14000000     -31.52930000     -70.62850000
C      -43.22450000     -30.62200000     -70.35190000
C      -44.16850000     -32.58020000     -69.57970000
H      -43.16150000     -29.80450000     -71.03590000
C      -43.28190000     -32.27730000     -68.54400000
C      -44.77020000     -33.86090000     -69.28500000
C      -44.28270000     -34.44040000     -68.14820000
S      -42.38990000     -30.82150000     -68.87300000
S      -43.11960000     -33.46860000     -67.31580000
H      -44.74650000     -35.33360000     -67.78920000
