40
Properties=species:S:1:pos:R:3 #=T CELL(abcABC):=T 1.889726e+02=T 90.00000=T Traj:=T positionsangstrom=T Step:=T 0=T Bead:=T pbc="F F F"
C      -47.31130000     -36.33380000     -72.51170000
C      -47.79840000     -35.02870000     -72.71620000
C      -47.15380000     -34.24490000     -73.67730000
C      -46.02740000     -34.77500000     -74.40470000
C      -45.65490000     -36.12870000     -74.24050000
C      -46.27080000     -36.89040000     -73.25240000
H      -47.78490000     -37.02580000     -71.84160000
H      -47.55790000     -33.23920000     -73.93190000
H      -44.80510000     -36.53730000     -74.82440000
H      -45.90960000     -37.90600000     -73.06570000
C      -45.25960000     -33.92690000     -75.35450000
H      -45.59550000     -33.90670000     -76.35180000
H      -44.29830000     -34.41160000     -75.59770000
C      -49.04770000     -34.40660000     -72.07420000
H      -49.24860000     -33.31360000     -72.42650000
H      -49.91250000     -34.98040000     -72.35100000
S      -44.92070000     -32.19020000     -74.79840000
S      -48.87800000     -34.46440000     -70.23210000
C      -44.13340000     -32.49520000     -73.22340000
H      -44.43020000     -33.52320000     -72.86110000
H      -43.02110000     -32.48960000     -73.14950000
C      -47.33450000     -33.42930000     -69.99820000
H      -47.49570000     -33.07710000     -69.00600000
H      -47.36970000     -32.55250000     -70.74190000
C      -46.01500000     -34.25230000     -70.15550000
H      -46.20650000     -35.15120000     -69.69920000
H      -45.81480000     -34.42710000     -71.14080000
C      -44.74420000     -31.45010000     -72.17540000
H      -45.84140000     -31.72860000     -72.05880000
H      -44.71650000     -30.46760000     -72.54870000
C      -43.98830000     -31.44750000     -70.85430000
C      -43.08870000     -30.42200000     -70.55360000
C      -44.13160000     -32.47010000     -69.75570000
H      -42.78440000     -29.58570000     -71.19260000
C      -43.16050000     -32.14040000     -68.78350000
C      -44.83470000     -33.66810000     -69.37980000
C      -44.46330000     -34.19360000     -68.22150000
S      -42.12050000     -30.74560000     -69.13130000
S      -43.09320000     -33.29950000     -67.51740000
H      -44.97820000     -35.05130000     -67.72650000
