40
Properties=species:S:1:pos:R:3 #=T CELL(abcABC):=T 1.889726e+02=T 90.00000=T Traj:=T positionsangstrom=T Step:=T 0=T Bead:=T pbc="F F F"
C      -47.85620000     -30.78910000     -71.77410000
C      -48.13700000     -32.01090000     -72.52050000
C      -47.30800000     -32.43910000     -73.51740000
C      -46.28790000     -31.62160000     -73.98780000
C      -46.01150000     -30.42130000     -73.33380000
C      -46.76150000     -30.00440000     -72.22370000
H      -48.48510000     -30.42670000     -70.95910000
H      -47.49770000     -33.39770000     -73.97110000
H      -45.13880000     -29.84710000     -73.68470000
H      -46.50850000     -29.11240000     -71.70760000
C      -45.42830000     -32.02000000     -75.14880000
H      -44.67950000     -31.22760000     -75.29020000
H      -45.91250000     -32.16670000     -76.10570000
C      -49.31790000     -32.89900000     -72.10380000
H      -49.90090000     -32.32570000     -71.34860000
H      -49.93660000     -33.00720000     -72.93940000
S      -44.51040000     -33.66260000     -74.86050000
S      -48.94900000     -34.57420000     -71.52640000
C      -43.92230000     -33.39580000     -73.15220000
H      -43.07380000     -32.67510000     -73.15350000
H      -44.67700000     -32.88680000     -72.57370000
C      -47.73650000     -34.26920000     -70.19610000
H      -47.93460000     -35.00710000     -69.42880000
H      -47.99210000     -33.23680000     -69.73150000
C      -46.28160000     -34.30980000     -70.60860000
H      -46.07690000     -35.26930000     -71.06360000
H      -46.12570000     -33.66130000     -71.50880000
C      -43.56390000     -34.69020000     -72.44730000
H      -42.75150000     -35.17470000     -72.98170000
H      -44.39730000     -35.38010000     -72.48240000
C      -43.05740000     -34.46120000     -71.00630000
C      -41.71610000     -34.61830000     -70.68880000
C      -43.81300000     -34.12290000     -69.86260000
H      -40.95770000     -35.21640000     -71.29590000
C      -43.04230000     -34.10120000     -68.67680000
C      -45.24660000     -33.97500000     -69.62410000
C      -45.46680000     -33.63210000     -68.30910000
S      -41.36540000     -34.52480000     -68.91110000
S      -43.96550000     -33.65470000     -67.26540000
H      -46.39600000     -33.39410000     -67.78740000
