40
Properties=species:S:1:pos:R:3 #=T CELL(abcABC):=T 1.889726e+02=T 90.00000=T Traj:=T positionsangstrom=T Step:=T 0=T Bead:=T pbc="F F F"
C      -47.98010000     -30.79870000     -71.84990000
C      -48.17350000     -32.01280000     -72.54500000
C      -47.31210000     -32.38950000     -73.58870000
C      -46.20710000     -31.61280000     -73.96530000
C      -45.95730000     -30.42800000     -73.21050000
C      -46.75870000     -30.07060000     -72.09380000
H      -48.59820000     -30.58510000     -71.03030000
H      -47.44670000     -33.43260000     -74.07520000
H      -45.10130000     -29.79290000     -73.35750000
H      -46.55190000     -29.19390000     -71.50420000
C      -45.30740000     -32.05960000     -75.08140000
H      -44.60070000     -31.20790000     -75.27890000
H      -45.91900000     -32.18660000     -76.00790000
C      -49.42740000     -32.84540000     -72.12390000
H      -50.05420000     -32.32070000     -71.27600000
H      -50.10450000     -32.85570000     -72.95290000
S      -44.34650000     -33.64370000     -74.81700000
S      -48.93490000     -34.61380000     -71.53560000
C      -43.40810000     -33.33480000     -73.32740000
H      -42.40550000     -33.06180000     -73.54020000
H      -43.80890000     -32.43920000     -72.74640000
C      -47.74310000     -34.16250000     -70.19400000
H      -47.94020000     -34.87610000     -69.42660000
H      -47.85920000     -33.15580000     -69.80680000
C      -46.34430000     -34.33190000     -70.70900000
H      -46.27150000     -35.33290000     -71.12580000
H      -46.15680000     -33.56680000     -71.47750000
C      -43.48560000     -34.62150000     -72.48580000
H      -42.72840000     -35.35050000     -72.85540000
H      -44.48300000     -35.02740000     -72.63010000
C      -43.02720000     -34.34630000     -71.01600000
C      -41.72910000     -34.52850000     -70.61360000
C      -43.87690000     -34.13030000     -69.86850000
H      -40.79420000     -34.69890000     -71.20750000
C      -43.14650000     -34.08650000     -68.66110000
C      -45.33950000     -34.16660000     -69.64260000
C      -45.57900000     -34.01270000     -68.31620000
S      -41.42900000     -34.19710000     -68.89830000
S      -44.17180000     -33.91150000     -67.26820000
H      -46.50320000     -34.04160000     -67.80210000
