40
Properties=species:S:1:pos:R:3 #=T CELL(abcABC):=T 1.889726e+02=T 90.00000=T Traj:=T positionsangstrom=T Step:=T 0=T Bead:=T pbc="F F F"
C      -49.01610000     -34.70220000     -70.59130000
C      -48.50020000     -33.46810000     -70.11040000
C      -47.42690000     -33.52280000     -69.19080000
C      -46.73390000     -34.70880000     -68.87890000
C      -47.22190000     -35.90610000     -69.41960000
C      -48.40370000     -35.88250000     -70.20730000
H      -49.87000000     -34.70650000     -71.23920000
H      -46.91070000     -32.56670000     -68.80960000
H      -46.76590000     -36.90440000     -69.26230000
H      -48.94020000     -36.78760000     -70.53380000
C      -45.41160000     -34.82150000     -68.08280000
H      -44.52630000     -35.27350000     -68.55490000
H      -45.50760000     -35.37080000     -67.19720000
C      -48.96660000     -32.12280000     -70.58370000
H      -49.54170000     -32.33130000     -71.50340000
H      -49.50880000     -31.54480000     -69.80160000
S      -44.73780000     -33.20020000     -67.52550000
S      -47.60760000     -30.94390000     -71.06210000
C      -43.54370000     -32.90370000     -68.91750000
H      -43.04080000     -31.93070000     -68.79720000
H      -42.72280000     -33.59870000     -68.80280000
C      -46.66460000     -31.72710000     -72.46910000
H      -45.66500000     -31.28070000     -72.40500000
H      -46.96870000     -31.32120000     -73.42150000
C      -46.50330000     -33.24690000     -72.56760000
H      -46.33870000     -33.69910000     -71.65920000
H      -47.43050000     -33.62160000     -73.02950000
C      -44.22510000     -32.92060000     -70.27000000
H      -44.95460000     -32.16830000     -70.44860000
H      -44.80170000     -33.83380000     -70.34020000
C      -43.34520000     -33.01700000     -71.55320000
C      -41.96820000     -33.07430000     -71.54480000
C      -43.87210000     -33.24400000     -72.88620000
H      -41.22320000     -33.08510000     -70.75030000
C      -42.89560000     -33.43830000     -73.84690000
C      -45.22220000     -33.50470000     -73.39500000
C      -45.13660000     -33.86520000     -74.73550000
S      -41.27900000     -33.42030000     -73.12190000
S      -43.55860000     -33.90470000     -75.39780000
H      -45.97210000     -34.25990000     -75.23710000
