40
Properties=species:S:1:pos:R:3 #=T CELL(abcABC):=T 1.889726e+02=T 90.00000=T Traj:=T positionsangstrom=T Step:=T 0=T Bead:=T pbc="F F F"
C      -47.89470000     -30.99400000     -71.78650000
C      -48.11920000     -32.11520000     -72.64660000
C      -47.19920000     -32.33090000     -73.68740000
C      -45.93300000     -31.60940000     -73.71490000
C      -45.74390000     -30.57350000     -72.78810000
C      -46.75990000     -30.21590000     -71.86800000
H      -48.67590000     -30.86290000     -70.98680000
H      -47.39210000     -33.21310000     -74.27800000
H      -44.86690000     -29.88420000     -72.77850000
H      -46.63140000     -29.38750000     -71.15620000
C      -44.98020000     -31.76370000     -74.83250000
H      -44.14890000     -30.97390000     -74.83300000
H      -45.52300000     -31.70230000     -75.84060000
C      -49.31230000     -32.96240000     -72.56080000
H      -50.16840000     -32.46340000     -72.12600000
H      -49.52420000     -33.26400000     -73.66040000
S      -44.27790000     -33.44990000     -74.86760000
S      -49.06340000     -34.63190000     -71.69130000
C      -43.52490000     -33.33210000     -73.16040000
H      -42.48480000     -32.86290000     -73.16270000
H      -44.21050000     -32.71300000     -72.59500000
C      -47.79720000     -34.27350000     -70.40130000
H      -48.15400000     -34.91790000     -69.61150000
H      -47.81710000     -33.22050000     -70.12080000
C      -46.37150000     -34.63330000     -70.87300000
H      -46.40000000     -35.63410000     -71.18310000
H      -46.06520000     -34.08800000     -71.73590000
C      -43.28990000     -34.62550000     -72.38010000
H      -42.43290000     -35.25850000     -72.70000000
H      -44.15850000     -35.25650000     -72.59150000
C      -42.93040000     -34.26140000     -70.94780000
C      -41.65020000     -34.05840000     -70.53360000
C      -43.92090000     -34.19940000     -69.87780000
H      -40.79320000     -34.13560000     -71.17880000
C      -43.31230000     -33.88390000     -68.64340000
C      -45.36860000     -34.45840000     -69.74550000
C      -45.75710000     -34.45480000     -68.41900000
S      -41.52410000     -33.82200000     -68.79140000
S      -44.40280000     -34.11700000     -67.30920000
H      -46.77570000     -34.66150000     -68.17020000
