40
Properties=species:S:1:pos:R:3 #=T CELL(abcABC):=T 1.889726e+02=T 90.00000=T Traj:=T positionsangstrom=T Step:=T 0=T Bead:=T pbc="F F F"
C      -47.70980000     -31.20270000     -71.71920000
C      -48.02460000     -32.18080000     -72.69060000
C      -47.13260000     -32.27290000     -73.79030000
C      -45.97170000     -31.49640000     -73.82880000
C      -45.65120000     -30.61440000     -72.78290000
C      -46.47710000     -30.48160000     -71.70800000
H      -48.29150000     -31.15490000     -70.78170000
H      -47.18520000     -33.00620000     -74.62130000
H      -44.72490000     -30.08410000     -72.81800000
H      -46.41040000     -29.89890000     -70.83760000
C      -45.10040000     -31.63980000     -75.02910000
H      -44.45910000     -30.75550000     -75.23760000
H      -45.60010000     -31.90930000     -76.00710000
C      -49.28460000     -33.04920000     -72.57240000
H      -49.81590000     -32.61740000     -71.70850000
H      -49.82690000     -33.19220000     -73.47350000
S      -44.02680000     -33.18950000     -74.79570000
S      -48.97390000     -34.85320000     -72.03380000
C      -43.57300000     -33.11690000     -72.94560000
H      -42.75200000     -32.36130000     -72.82770000
H      -44.52890000     -32.71860000     -72.38820000
C      -47.92350000     -34.69430000     -70.46660000
H      -48.36340000     -35.43440000     -69.79850000
H      -48.05300000     -33.69760000     -69.97660000
C      -46.40200000     -34.82500000     -70.90870000
H      -46.17570000     -35.75890000     -71.32410000
H      -46.17350000     -34.08930000     -71.64270000
C      -43.13980000     -34.46630000     -72.31620000
H      -42.24060000     -34.94590000     -72.72070000
H      -44.02940000     -35.15930000     -72.39250000
C      -42.90820000     -34.27150000     -70.87540000
C      -41.69530000     -33.94250000     -70.36600000
C      -43.95020000     -34.34040000     -69.85960000
H      -40.81320000     -33.76510000     -70.98260000
C      -43.43680000     -33.99040000     -68.59510000
C      -45.41370000     -34.51900000     -69.79330000
C      -45.85600000     -34.40040000     -68.46700000
S      -41.72200000     -33.69190000     -68.58280000
S      -44.62160000     -33.98990000     -67.33800000
H      -46.92150000     -34.33730000     -68.09120000
