40
Properties=species:S:1:pos:R:3 #=T CELL(abcABC):=T 1.889726e+02=T 90.00000=T Traj:=T positionsangstrom=T Step:=T 0=T Bead:=T pbc="F F F"
C      -47.77920000     -31.31960000     -71.63320000
C      -48.08320000     -32.29070000     -72.64120000
C      -47.29150000     -32.34890000     -73.80540000
C      -46.11340000     -31.57140000     -73.88400000
C      -45.79720000     -30.70590000     -72.85530000
C      -46.57460000     -30.61960000     -71.66880000
H      -48.46570000     -31.35080000     -70.82020000
H      -47.56160000     -32.96800000     -74.61270000
H      -44.82550000     -30.16710000     -72.89200000
H      -46.27270000     -29.97680000     -70.81430000
C      -45.17340000     -31.79980000     -75.04880000
H      -44.61560000     -30.86440000     -75.29360000
H      -45.83220000     -32.06050000     -75.85460000
C      -49.25990000     -33.27770000     -72.47260000
H      -49.77660000     -33.09450000     -71.54900000
H      -49.97670000     -33.14120000     -73.26490000
S      -43.94260000     -33.19120000     -74.68700000
S      -48.61940000     -35.01620000     -72.46650000
C      -43.35400000     -33.05200000     -72.90310000
H      -42.42570000     -32.41010000     -72.90360000
H      -44.14060000     -32.48330000     -72.43480000
C      -47.70130000     -35.05590000     -70.79620000
H      -47.73610000     -35.97880000     -70.23910000
H      -48.26510000     -34.27640000     -70.26910000
C      -46.30530000     -34.45410000     -71.02910000
H      -45.69750000     -35.09480000     -71.73540000
H      -46.31070000     -33.50390000     -71.55430000
C      -43.13360000     -34.41960000     -72.18290000
H      -42.34200000     -35.10220000     -72.56470000
H      -44.10210000     -34.93790000     -72.29910000
C      -42.92060000     -34.16250000     -70.72960000
C      -41.70220000     -33.98270000     -70.16050000
C      -44.02620000     -34.23180000     -69.75420000
H      -40.71820000     -34.03730000     -70.59020000
C      -43.51330000     -34.02110000     -68.49490000
C      -45.48230000     -34.23210000     -69.78270000
C      -45.99360000     -33.99240000     -68.50420000
S      -41.82530000     -33.73780000     -68.41410000
S      -44.75490000     -33.74860000     -67.30820000
H      -47.12140000     -34.01420000     -68.33780000
