40
Properties=species:S:1:pos:R:3 #=T CELL(abcABC):=T 1.889726e+02=T 90.00000=T Traj:=T positionsangstrom=T Step:=T 0=T Bead:=T pbc="F F F"
C      -47.94270000     -30.97420000     -71.77350000
C      -48.14420000     -32.01630000     -72.62980000
C      -47.18260000     -32.41070000     -73.59580000
C      -46.11640000     -31.58220000     -73.84010000
C      -45.91560000     -30.44510000     -73.01970000
C      -46.79460000     -30.18790000     -71.99820000
H      -48.71750000     -30.72380000     -71.09060000
H      -47.51160000     -33.31990000     -74.18400000
H      -45.07890000     -29.77380000     -73.21430000
H      -46.60820000     -29.32770000     -71.34140000
C      -45.17420000     -31.86250000     -74.98190000
H      -44.40560000     -31.16010000     -75.11270000
H      -45.76560000     -31.88130000     -75.89510000
C      -49.42900000     -32.86760000     -72.39270000
H      -50.08500000     -32.45140000     -71.70590000
H      -49.99650000     -33.12190000     -73.32000000
S      -44.29970000     -33.54170000     -74.80690000
S      -49.05270000     -34.51640000     -71.69130000
C      -43.28280000     -33.33910000     -73.28950000
H      -42.25830000     -33.05330000     -73.57220000
H      -43.78130000     -32.55730000     -72.74420000
C      -47.79120000     -34.21440000     -70.34690000
H      -48.06050000     -34.94150000     -69.52430000
H      -47.88290000     -33.20630000     -69.97880000
C      -46.35600000     -34.42680000     -70.78850000
H      -46.11440000     -35.36550000     -71.38610000
H      -46.17500000     -33.58580000     -71.47480000
C      -43.43220000     -34.59330000     -72.41220000
H      -42.79260000     -35.33170000     -72.85850000
H      -44.45110000     -34.97950000     -72.46890000
C      -43.01750000     -34.36230000     -70.92110000
C      -41.69640000     -34.15210000     -70.59880000
C      -43.89930000     -34.42670000     -69.81940000
H      -40.85670000     -33.94620000     -71.20930000
C      -43.19500000     -34.27130000     -68.65020000
C      -45.32090000     -34.39850000     -69.65290000
C      -45.61570000     -34.20070000     -68.34730000
S      -41.45390000     -33.95990000     -68.79880000
S      -44.26780000     -34.05840000     -67.27880000
H      -46.60140000     -34.17260000     -68.00960000
