40
Properties=species:S:1:pos:R:3 #=T CELL(abcABC):=T 1.889726e+02=T 90.00000=T Traj:=T positionsangstrom=T Step:=T 0=T Bead:=T pbc="F F F"
C      -48.91420000     -34.85780000     -70.61330000
C      -48.39240000     -33.57760000     -70.27540000
C      -47.32990000     -33.52070000     -69.34260000
C      -46.65530000     -34.72130000     -68.93340000
C      -47.16410000     -35.94690000     -69.30350000
C      -48.27290000     -36.00030000     -70.18440000
H      -49.81080000     -35.10650000     -71.24040000
H      -47.00100000     -32.54520000     -68.98230000
H      -46.54900000     -36.81120000     -69.04820000
H      -48.57720000     -37.03870000     -70.46940000
C      -45.50920000     -34.66950000     -67.82900000
H      -44.90650000     -35.55580000     -68.13010000
H      -46.06900000     -34.89720000     -66.92620000
C      -49.07130000     -32.27900000     -70.63250000
H      -49.86710000     -32.48690000     -71.38390000
H      -49.70580000     -31.87520000     -69.83300000
S      -44.62160000     -33.06720000     -67.61240000
S      -47.79760000     -31.01900000     -71.06480000
C      -43.45980000     -33.07620000     -69.03560000
H      -42.75240000     -32.33310000     -68.69100000
H      -43.02250000     -34.07240000     -69.11550000
C      -46.75210000     -31.58620000     -72.43170000
H      -45.85300000     -31.09660000     -72.22370000
H      -47.28420000     -31.25280000     -73.45150000
C      -46.54180000     -33.06840000     -72.66710000
H      -46.67010000     -33.71640000     -71.74000000
H      -47.47630000     -33.48060000     -73.12440000
C      -44.13690000     -32.63570000     -70.30780000
H      -44.22510000     -31.54840000     -70.17170000
H      -45.14570000     -33.13560000     -70.35260000
C      -43.30840000     -33.09810000     -71.49180000
C      -41.96410000     -32.99290000     -71.55780000
C      -43.88960000     -33.53050000     -72.73230000
H      -41.21520000     -32.66040000     -70.81530000
C      -42.92490000     -33.75840000     -73.70020000
C      -45.26130000     -33.45550000     -73.34760000
C      -45.19590000     -33.56320000     -74.74520000
S      -41.33550000     -33.36480000     -73.16200000
S      -43.49670000     -33.95210000     -75.33680000
H      -46.11740000     -33.65690000     -75.33520000
