40
Properties=species:S:1:pos:R:3 #=T CELL(abcABC):=T 1.889726e+02=T 90.00000=T Traj:=T positionsangstrom=T Step:=T 0=T Bead:=T pbc="F F F"
C      -48.45970000     -31.39560000     -72.51230000
C      -47.98180000     -32.55920000     -73.19180000
C      -46.84660000     -32.39560000     -74.02430000
C      -46.08960000     -31.19750000     -74.02140000
C      -46.59800000     -30.10350000     -73.37790000
C      -47.76690000     -30.18670000     -72.65890000
H      -49.26470000     -31.43590000     -71.79660000
H      -46.36340000     -33.18630000     -74.64210000
H      -46.16690000     -29.12670000     -73.57050000
H      -48.23710000     -29.22810000     -72.36930000
C      -44.81730000     -31.11270000     -74.87860000
H      -44.42820000     -30.08380000     -74.87770000
H      -44.96990000     -31.30480000     -75.93650000
C      -48.83120000     -33.76160000     -73.09560000
H      -49.48010000     -33.59430000     -72.23180000
H      -49.46910000     -33.94460000     -73.95940000
S      -43.61370000     -32.46180000     -74.34530000
S      -47.80800000     -35.30740000     -72.85820000
C      -43.61630000     -32.60060000     -72.43870000
H      -43.04450000     -31.85630000     -71.86710000
H      -44.64630000     -32.41880000     -72.02240000
C      -47.42410000     -35.35350000     -71.01610000
H      -47.00040000     -36.31120000     -70.88650000
H      -48.37460000     -35.32400000     -70.40080000
C      -46.53800000     -34.16160000     -70.69990000
H      -45.75400000     -34.14070000     -71.53650000
H      -47.14030000     -33.23470000     -70.87900000
C      -43.31650000     -34.03210000     -72.04910000
H      -42.34890000     -34.39690000     -72.45550000
H      -44.04550000     -34.76860000     -72.39550000
C      -43.15430000     -34.03890000     -70.47990000
C      -41.86380000     -34.21150000     -69.97250000
C      -44.20230000     -34.11000000     -69.47900000
H      -40.94080000     -34.03040000     -70.57040000
C      -43.61920000     -34.12320000     -68.19590000
C      -45.66040000     -34.20000000     -69.47280000
C      -46.03790000     -34.49990000     -68.12830000
S      -41.86870000     -34.11000000     -68.19430000
S      -44.79110000     -34.45000000     -66.90610000
H      -47.04540000     -34.67090000     -67.78460000
