40
Properties=species:S:1:pos:R:3 #=T CELL(abcABC):=T 1.889726e+02=T 90.00000=T Traj:=T positionsangstrom=T Step:=T 0=T Bead:=T pbc="F F F"
C      -48.61780000     -31.42340000     -72.53520000
C      -48.13650000     -32.55300000     -73.22460000
C      -46.85640000     -32.37230000     -73.77800000
C      -46.06890000     -31.19670000     -73.73440000
C      -46.55390000     -30.13350000     -72.96480000
C      -47.87150000     -30.27350000     -72.46270000
H      -49.61430000     -31.49810000     -72.09450000
H      -46.51160000     -33.13510000     -74.46070000
H      -46.00100000     -29.26620000     -72.71080000
H      -48.26760000     -29.53820000     -71.78010000
C      -44.74450000     -31.00350000     -74.46150000
H      -44.26150000     -30.13550000     -73.99700000
H      -44.77360000     -30.64650000     -75.48960000
C      -48.82480000     -33.91430000     -73.08090000
H      -49.50270000     -33.93190000     -72.21590000
H      -49.50000000     -34.04270000     -73.96930000
S      -43.49320000     -32.47830000     -74.27340000
S      -47.75760000     -35.41940000     -73.03100000
C      -43.30690000     -32.51830000     -72.36850000
H      -42.49240000     -31.80390000     -72.15560000
H      -44.28440000     -32.15490000     -72.07030000
C      -47.11250000     -35.28240000     -71.33960000
H      -46.25650000     -36.02660000     -71.23300000
H      -47.78960000     -35.47540000     -70.56580000
C      -46.41800000     -33.94620000     -70.94550000
H      -45.78660000     -33.42820000     -71.63430000
H      -47.18640000     -33.19330000     -70.73410000
C      -43.17890000     -34.01280000     -72.00990000
H      -42.28440000     -34.42280000     -72.45780000
H      -44.06830000     -34.54520000     -72.31190000
C      -43.09200000     -34.14000000     -70.53710000
C      -41.92870000     -34.12950000     -69.89450000
C      -44.22290000     -34.18360000     -69.58640000
H      -41.03180000     -34.18570000     -70.46010000
C      -43.72010000     -34.31480000     -68.28770000
C      -45.65230000     -34.02470000     -69.63250000
C      -46.20250000     -33.98220000     -68.37680000
S      -42.01130000     -34.36060000     -68.15170000
S      -44.99540000     -34.36330000     -67.07750000
H      -47.26050000     -33.93420000     -68.15900000
