40
Properties=species:S:1:pos:R:3 #=T CELL(abcABC):=T 1.889726e+02=T 90.00000=T Traj:=T positionsangstrom=T Step:=T 0=T Bead:=T pbc="F F F"
C      -48.45580000     -31.34380000     -72.49700000
C      -48.08780000     -32.57430000     -73.14470000
C      -46.94280000     -32.52120000     -73.96070000
C      -46.20670000     -31.38140000     -74.19110000
C      -46.55260000     -30.17420000     -73.58520000
C      -47.66140000     -30.17820000     -72.78280000
H      -49.31320000     -31.34610000     -71.78900000
H      -46.54940000     -33.49800000     -74.18360000
H      -46.04540000     -29.21930000     -73.90100000
H      -48.10390000     -29.31260000     -72.29630000
C      -44.94390000     -31.34150000     -75.02840000
H      -44.43150000     -30.42340000     -75.05270000
H      -45.20370000     -31.54990000     -76.08160000
C      -48.93420000     -33.77560000     -72.98500000
H      -49.71860000     -33.83850000     -72.21700000
H      -49.39760000     -34.00990000     -73.97540000
S      -43.79600000     -32.61340000     -74.46700000
S      -47.94190000     -35.41050000     -72.60500000
C      -43.60390000     -32.37800000     -72.58010000
H      -42.79990000     -31.63280000     -72.38720000
H      -44.52880000     -31.97000000     -72.20530000
C      -47.17740000     -35.11020000     -70.91310000
H      -46.49730000     -35.99060000     -70.83490000
H      -48.04140000     -35.24780000     -70.25770000
C      -46.42780000     -33.74590000     -70.63560000
H      -45.86280000     -33.60130000     -71.51510000
H      -47.12590000     -32.87080000     -70.54740000
C      -43.26320000     -33.76450000     -71.96700000
H      -42.40430000     -34.21200000     -72.49030000
H      -44.18870000     -34.39390000     -72.21890000
C      -43.08060000     -33.89070000     -70.45660000
C      -41.80830000     -33.99810000     -69.94190000
C      -44.08940000     -33.90430000     -69.41350000
H      -40.84480000     -33.96120000     -70.39390000
C      -43.58160000     -34.22760000     -68.16120000
C      -45.53580000     -33.91540000     -69.38160000
C      -45.99920000     -34.22540000     -68.10900000
S      -41.80670000     -34.28670000     -68.23600000
S      -44.73200000     -34.66980000     -66.97970000
H      -47.07530000     -34.24900000     -67.85480000
