40
Properties=species:S:1:pos:R:3 #=T CELL(abcABC):=T 1.889726e+02=T 90.00000=T Traj:=T positionsangstrom=T Step:=T 0=T Bead:=T pbc="F F F"
C      -48.48530000     -31.44340000     -72.56800000
C      -48.17400000     -32.61780000     -73.24930000
C      -46.92240000     -32.61440000     -74.00780000
C      -46.12430000     -31.45220000     -73.99440000
C      -46.48740000     -30.31140000     -73.23900000
C      -47.67500000     -30.26560000     -72.60630000
H      -49.38450000     -31.38840000     -72.05020000
H      -46.59140000     -33.52640000     -74.54300000
H      -45.82250000     -29.41200000     -73.25430000
H      -47.86490000     -29.42150000     -71.99790000
C      -44.81850000     -31.39570000     -74.71290000
H      -44.28160000     -30.46210000     -74.46480000
H      -44.89980000     -31.28430000     -75.84550000
C      -49.09770000     -33.83880000     -73.24050000
H      -49.94300000     -33.63190000     -72.60690000
H      -49.43890000     -34.31440000     -74.18500000
S      -43.60720000     -32.75330000     -74.35850000
S      -48.28200000     -35.35350000     -72.50360000
C      -43.43300000     -32.77650000     -72.50950000
H      -42.73680000     -31.99470000     -72.25810000
H      -44.37780000     -32.49680000     -72.11600000
C      -47.66400000     -34.79020000     -70.81850000
H      -47.56220000     -35.75260000     -70.27840000
H      -48.41810000     -34.22300000     -70.36610000
C      -46.32300000     -34.01390000     -70.83740000
H      -45.71460000     -34.33940000     -71.75120000
H      -46.49330000     -32.92710000     -70.94880000
C      -43.03400000     -34.16230000     -72.11750000
H      -42.01840000     -34.45270000     -72.53040000
H      -43.73610000     -34.96540000     -72.46180000
C      -42.95730000     -34.12770000     -70.57280000
C      -41.70240000     -34.20060000     -69.97090000
C      -44.05850000     -34.03430000     -69.59140000
H      -40.75810000     -34.15560000     -70.50460000
C      -43.53620000     -33.90370000     -68.29090000
C      -45.47420000     -34.14620000     -69.60330000
C      -45.97250000     -34.28940000     -68.34190000
S      -41.80350000     -34.11410000     -68.19830000
S      -44.77130000     -33.97820000     -67.02320000
H      -47.04550000     -34.38540000     -68.12020000
