40
Properties=species:S:1:pos:R:3 #=T CELL(abcABC):=T 1.889726e+02=T 90.00000=T Traj:=T positionsangstrom=T Step:=T 0=T Bead:=T pbc="F F F"
C      -48.51560000     -31.71860000     -72.45630000
C      -48.03600000     -32.63220000     -73.35110000
C      -46.88880000     -32.38910000     -74.04400000
C      -46.09710000     -31.20580000     -73.88310000
C      -46.66400000     -30.17430000     -73.08450000
C      -47.90930000     -30.41170000     -72.41960000
H      -49.41450000     -31.87130000     -71.84580000
H      -46.63680000     -33.11040000     -74.89970000
H      -46.05330000     -29.28650000     -72.83350000
H      -48.29620000     -29.67620000     -71.68820000
C      -44.76190000     -31.02400000     -74.44430000
H      -44.22930000     -30.10680000     -74.11490000
H      -44.77660000     -31.08200000     -75.53510000
C      -48.71010000     -34.02620000     -73.34840000
H      -49.37520000     -34.10570000     -72.47600000
H      -49.31940000     -34.23110000     -74.22210000
S      -43.65250000     -32.47540000     -74.03480000
S      -47.56090000     -35.43350000     -73.20600000
C      -43.26350000     -32.34400000     -72.25260000
H      -42.40360000     -31.68060000     -72.13280000
H      -44.11450000     -32.05120000     -71.71570000
C      -46.90130000     -35.28120000     -71.44560000
H      -46.29400000     -36.17840000     -71.38690000
H      -47.68730000     -35.64230000     -70.75020000
C      -46.15630000     -33.96060000     -71.11590000
H      -45.45200000     -33.83190000     -71.87630000
H      -46.82810000     -33.05750000     -71.22130000
C      -42.88760000     -33.73030000     -71.82990000
H      -41.84770000     -33.87430000     -72.21900000
H      -43.53530000     -34.39490000     -72.45380000
C      -43.00560000     -34.07930000     -70.36740000
C      -41.91280000     -34.30520000     -69.64240000
C      -44.19000000     -34.08310000     -69.51370000
H      -40.88260000     -34.46100000     -70.02230000
C      -43.88440000     -34.32300000     -68.15370000
C      -45.57310000     -33.86710000     -69.72850000
C      -46.33940000     -33.89470000     -68.56440000
S      -42.15800000     -34.57260000     -67.92470000
S      -45.26360000     -34.09540000     -67.16540000
H      -47.39550000     -33.60030000     -68.49240000
