40
Properties=species:S:1:pos:R:3 #=T CELL(abcABC):=T 1.889726e+02=T 90.00000=T Traj:=T positionsangstrom=T Step:=T 0=T Bead:=T pbc="F F F"
C      -48.60480000     -31.63880000     -72.70730000
C      -47.99120000     -32.63930000     -73.40250000
C      -46.84350000     -32.39030000     -74.10850000
C      -46.09520000     -31.15530000     -73.93140000
C      -46.68840000     -30.12230000     -73.14270000
C      -48.00370000     -30.37930000     -72.56580000
H      -49.57900000     -31.85220000     -72.18410000
H      -46.34300000     -33.23240000     -74.56860000
H      -46.31100000     -29.13110000     -73.12250000
H      -48.36390000     -29.49640000     -72.00430000
C      -44.71370000     -31.02590000     -74.55810000
H      -44.28930000     -29.99630000     -74.31890000
H      -44.68760000     -30.96980000     -75.64780000
C      -48.55060000     -34.08000000     -73.45360000
H      -49.43870000     -34.08460000     -72.89170000
H      -48.91450000     -34.24260000     -74.51970000
S      -43.65710000     -32.43700000     -74.05350000
S      -47.29930000     -35.48550000     -73.24160000
C      -43.49180000     -32.57720000     -72.18340000
H      -42.94800000     -31.63930000     -71.97390000
H      -44.54900000     -32.39880000     -71.82350000
C      -47.06610000     -35.31970000     -71.39910000
H      -46.33920000     -36.05980000     -70.98640000
H      -48.05360000     -35.27300000     -70.93490000
C      -46.32430000     -33.93860000     -71.03330000
H      -45.67680000     -33.66290000     -71.85400000
H      -47.09780000     -33.18700000     -70.99110000
C      -42.88960000     -33.93620000     -71.81780000
H      -41.90630000     -34.02740000     -72.19860000
H      -43.55120000     -34.68530000     -72.28840000
C      -42.91230000     -34.11240000     -70.26200000
C      -41.82060000     -34.29760000     -69.44000000
C      -44.14060000     -34.09930000     -69.54200000
H      -40.73610000     -34.54670000     -69.69180000
C      -43.90530000     -34.30400000     -68.13500000
C      -45.55770000     -33.90390000     -69.76070000
C      -46.31190000     -33.90630000     -68.57700000
S      -42.23790000     -34.44090000     -67.70440000
S      -45.31030000     -34.07490000     -67.17120000
H      -47.35120000     -33.68530000     -68.51370000
