40
Properties=species:S:1:pos:R:3 #=T CELL(abcABC):=T 1.889726e+02=T 90.00000=T Traj:=T positionsangstrom=T Step:=T 0=T Bead:=T pbc="F F F"
C      -48.49430000     -35.09860000     -71.67480000
C      -48.03080000     -34.33170000     -72.75560000
C      -46.88780000     -34.75410000     -73.48320000
C      -46.19950000     -35.93400000     -73.11720000
C      -46.67470000     -36.69810000     -72.01640000
C      -47.85080000     -36.31900000     -71.37950000
H      -49.29100000     -34.79420000     -70.98030000
H      -46.61150000     -34.23800000     -74.42700000
H      -46.18980000     -37.68100000     -71.73890000
H      -48.21050000     -36.87880000     -70.53120000
C      -44.91690000     -36.43300000     -73.75510000
H      -45.14740000     -37.20150000     -74.56510000
H      -44.45000000     -37.05250000     -72.99670000
C      -48.69450000     -33.00810000     -73.19760000
H      -48.25470000     -32.56310000     -74.09420000
H      -49.74960000     -33.24040000     -73.43450000
S      -43.86780000     -35.19280000     -74.62680000
S      -48.92590000     -31.91860000     -71.74050000
C      -43.02850000     -34.29420000     -73.12070000
H      -42.54300000     -35.06310000     -72.40680000
H      -42.21770000     -33.77140000     -73.62040000
C      -47.28150000     -31.63010000     -70.85190000
H      -47.50450000     -30.83900000     -70.14740000
H      -46.48210000     -31.12760000     -71.52490000
C      -46.69590000     -32.95020000     -70.19100000
H      -47.46000000     -33.35110000     -69.52840000
H      -46.42010000     -33.61620000     -70.94090000
C      -44.04050000     -33.40160000     -72.37490000
H      -44.92090000     -33.98080000     -71.94070000
H      -44.58140000     -32.70680000     -73.06990000
C      -43.42250000     -32.67790000     -71.24870000
C      -42.13120000     -32.15980000     -71.19790000
C      -44.01260000     -32.41640000     -69.95820000
H      -41.42080000     -32.36030000     -71.92650000
C      -43.22590000     -31.69950000     -69.05380000
C      -45.34430000     -32.62860000     -69.39550000
C      -45.37030000     -32.42100000     -68.08480000
S      -41.64860000     -31.30740000     -69.73780000
S      -43.86880000     -31.73090000     -67.41470000
H      -46.17510000     -32.67400000     -67.41680000
