40
Properties=species:S:1:pos:R:3 #=T CELL(abcABC):=T 1.889726e+02=T 90.00000=T Traj:=T positionsangstrom=T Step:=T 0=T Bead:=T pbc="F F F"
C      -48.81500000     -35.55010000     -71.74600000
C      -48.22970000     -34.67970000     -72.70910000
C      -47.00020000     -34.97170000     -73.26050000
C      -46.33320000     -36.16050000     -72.94200000
C      -46.96420000     -37.07860000     -72.04630000
C      -48.15690000     -36.70220000     -71.43120000
H      -49.73110000     -35.30460000     -71.21200000
H      -46.45130000     -34.42410000     -74.03990000
H      -46.44730000     -37.98860000     -71.88410000
H      -48.55740000     -37.46670000     -70.73810000
C      -45.03610000     -36.61250000     -73.56240000
H      -45.19100000     -37.13430000     -74.48220000
H      -44.57530000     -37.38200000     -73.00570000
C      -48.88870000     -33.36170000     -73.15060000
H      -48.41090000     -32.77980000     -73.93970000
H      -49.91250000     -33.47820000     -73.45390000
S      -43.79490000     -35.33890000     -74.17890000
S      -48.88500000     -32.23900000     -71.65330000
C      -43.39170000     -34.49540000     -72.57930000
H      -44.11030000     -34.99300000     -71.91660000
H      -42.41890000     -34.68810000     -72.22910000
C      -47.15060000     -31.74930000     -71.22210000
H      -47.31990000     -30.92830000     -70.56560000
H      -46.71100000     -31.28300000     -72.08510000
C      -46.35960000     -32.83160000     -70.54800000
H      -47.06410000     -33.55980000     -69.97270000
H      -46.06110000     -33.51960000     -71.32510000
C      -43.71550000     -32.95150000     -72.66360000
H      -44.73600000     -32.75630000     -72.92640000
H      -43.18490000     -32.43910000     -73.50700000
C      -43.14710000     -32.24080000     -71.43610000
C      -41.87880000     -31.74110000     -71.25170000
C      -43.92170000     -32.03450000     -70.17040000
H      -41.08850000     -31.75070000     -72.05890000
C      -43.12040000     -31.52430000     -69.12250000
C      -45.26570000     -32.25120000     -69.73170000
C      -45.38230000     -32.04030000     -68.37760000
S      -41.47790000     -31.18980000     -69.60630000
S      -43.96210000     -31.31220000     -67.61180000
H      -46.31740000     -32.04320000     -67.84680000
