40
Properties=species:S:1:pos:R:3 #=T CELL(abcABC):=T 1.889726e+02=T 90.00000=T Traj:=T positionsangstrom=T Step:=T 0=T Bead:=T pbc="F F F"
C      -44.93290000     -36.22450000     -68.81210000
C      -46.20830000     -35.86180000     -69.17700000
C      -46.77730000     -34.59250000     -68.77090000
C      -45.99300000     -33.71740000     -67.96950000
C      -44.72770000     -34.13320000     -67.57540000
C      -44.23690000     -35.35780000     -67.96860000
H      -44.42490000     -37.19220000     -69.04540000
H      -47.74090000     -34.31350000     -69.22670000
H      -44.29200000     -33.62820000     -66.70260000
H      -43.29940000     -35.69080000     -67.56780000
C      -46.62810000     -32.41800000     -67.47040000
H      -46.38240000     -32.45790000     -66.36030000
H      -47.75580000     -32.41050000     -67.60970000
C      -47.01240000     -36.74380000     -70.03080000
H      -47.21970000     -37.70390000     -69.58590000
H      -48.00420000     -36.30910000     -70.26270000
S      -46.03860000     -30.85920000     -68.26940000
S      -46.33300000     -37.11930000     -71.68950000
C      -45.23390000     -31.51420000     -69.74630000
H      -44.58910000     -30.65480000     -70.05830000
H      -44.63200000     -32.33620000     -69.42370000
C      -46.07160000     -35.44980000     -72.47980000
H      -46.96450000     -34.81700000     -72.46710000
H      -45.98610000     -35.76080000     -73.52160000
C      -44.72140000     -34.76470000     -71.99880000
H      -44.94290000     -34.21950000     -71.08830000
H      -44.05480000     -35.51310000     -71.61000000
C      -46.18870000     -31.80200000     -70.94190000
H      -46.95950000     -31.02960000     -70.96050000
H      -46.73140000     -32.79240000     -70.80930000
C      -45.53260000     -31.57790000     -72.35190000
C      -45.58750000     -30.32350000     -72.82020000
C      -44.68110000     -32.44460000     -73.12170000
H      -46.31620000     -29.53520000     -72.65520000
C      -44.32900000     -31.85550000     -74.34620000
C      -44.20230000     -33.80670000     -73.08150000
C      -43.38690000     -34.14450000     -74.06320000
S      -44.89260000     -30.16640000     -74.52540000
S      -43.38010000     -32.85210000     -75.33710000
H      -42.82590000     -35.12530000     -74.24170000
