40
Properties=species:S:1:pos:R:3 #=T CELL(abcABC):=T 1.889726e+02=T 90.00000=T Traj:=T positionsangstrom=T Step:=T 0=T Bead:=T pbc="F F F"
C      -48.35890000     -35.13760000     -70.68570000
C      -48.20290000     -33.81910000     -70.24150000
C      -47.36150000     -33.66090000     -69.15640000
C      -46.75740000     -34.66490000     -68.41990000
C      -46.93050000     -35.93070000     -68.92420000
C      -47.75900000     -36.17940000     -70.01250000
H      -49.01810000     -35.36910000     -71.49440000
H      -47.04210000     -32.66990000     -68.84460000
H      -46.23810000     -36.77980000     -68.61400000
H      -47.83890000     -37.18290000     -70.41970000
C      -45.76800000     -34.40870000     -67.29550000
H      -45.18120000     -35.31650000     -67.01780000
H      -46.21100000     -34.02120000     -66.37450000
C      -49.06010000     -32.67080000     -70.81060000
H      -49.53630000     -32.86630000     -71.73260000
H      -49.77100000     -32.33630000     -70.05160000
S      -44.51660000     -33.01330000     -67.66650000
S      -48.11920000     -31.08660000     -71.24360000
C      -43.83470000     -33.48020000     -69.31010000
H      -42.71310000     -33.72020000     -69.22430000
H      -44.31950000     -34.31500000     -69.81940000
C      -47.03560000     -31.47110000     -72.64520000
H      -46.18120000     -30.72850000     -72.66690000
H      -47.55310000     -31.14670000     -73.63570000
C      -46.52950000     -32.95590000     -72.62280000
H      -46.33060000     -33.17280000     -71.57450000
H      -47.37930000     -33.57670000     -73.02820000
C      -43.94690000     -32.30050000     -70.29120000
H      -43.37160000     -31.35640000     -69.98980000
H      -45.00930000     -32.12670000     -70.52680000
C      -43.25180000     -32.70450000     -71.61430000
C      -41.87610000     -32.95690000     -71.65650000
C      -43.87470000     -33.11190000     -72.86640000
H      -41.20860000     -32.69360000     -70.87070000
C      -42.89940000     -33.46680000     -73.82380000
C      -45.22730000     -33.18290000     -73.39770000
C      -45.29100000     -33.64980000     -74.70500000
S      -41.33010000     -33.48840000     -73.18960000
S      -43.61480000     -34.04120000     -75.31400000
H      -46.14650000     -33.66600000     -75.35280000
