40
Properties=species:S:1:pos:R:3 #=T CELL(abcABC):=T 1.889726e+02=T 90.00000=T Traj:=T positionsangstrom=T Step:=T 0=T Bead:=T pbc="F F F"
C      -47.66510000     -32.78430000     -74.29750000
C      -46.72830000     -33.79070000     -74.50590000
C      -45.36460000     -33.49090000     -74.66740000
C      -44.98870000     -32.18600000     -74.35910000
C      -45.91290000     -31.17510000     -74.07140000
C      -47.29930000     -31.42690000     -74.04330000
H      -48.70300000     -33.09610000     -74.16350000
H      -44.64260000     -34.23080000     -74.87540000
H      -45.54900000     -30.12430000     -74.00000000
H      -48.04020000     -30.67200000     -74.00000000
C      -43.51030000     -31.87840000     -74.69100000
H      -43.34260000     -30.82800000     -74.64100000
H      -43.20600000     -32.36730000     -75.68600000
C      -47.35280000     -35.18020000     -74.61900000
H      -48.30000000     -35.18150000     -75.05100000
H      -46.64900000     -35.79750000     -75.20140000
S      -42.42690000     -32.78080000     -73.46890000
S      -47.57080000     -35.96780000     -72.91970000
C      -43.26820000     -32.56520000     -71.85080000
H      -42.88970000     -31.65280000     -71.47080000
H      -44.37170000     -32.49620000     -71.98660000
C      -47.58640000     -34.71800000     -71.60290000
H      -47.96310000     -35.31010000     -70.69350000
H      -48.29570000     -33.95890000     -71.93670000
C      -46.29110000     -34.16730000     -71.14620000
H      -45.49260000     -34.86600000     -71.26240000
H      -45.88070000     -33.36750000     -71.81380000
C      -42.90400000     -33.71360000     -70.92570000
H      -41.81810000     -33.71880000     -70.82030000
H      -43.20330000     -34.66870000     -71.39260000
C      -43.45330000     -33.51830000     -69.49850000
C      -42.62970000     -33.41370000     -68.39930000
C      -44.87390000     -33.28680000     -69.11020000
H      -41.57110000     -33.62430000     -68.42250000
C      -44.98680000     -33.01610000     -67.72510000
C      -46.13650000     -33.64480000     -69.74220000
C      -47.14970000     -33.51040000     -68.85350000
S      -43.53270000     -33.00380000     -66.88690000
S      -46.65110000     -33.09370000     -67.17830000
H      -48.26590000     -33.48270000     -68.99460000
