40
Properties=species:S:1:pos:R:3 #=T CELL(abcABC):=T 1.889726e+02=T 90.00000=T Traj:=T positionsangstrom=T Step:=T 0=T Bead:=T pbc="F F F"
C      -47.02870000     -35.68240000     -73.83590000
C      -46.33630000     -36.03300000     -72.69400000
C      -46.90990000     -35.96200000     -71.39200000
C      -48.18600000     -35.42950000     -71.23230000
C      -48.74920000     -34.82110000     -72.37680000
C      -48.25560000     -35.03040000     -73.67480000
H      -46.64790000     -35.70360000     -74.79950000
H      -46.50960000     -36.39550000     -70.52790000
H      -49.64840000     -34.15710000     -72.38890000
H      -48.72200000     -34.48850000     -74.50810000
C      -48.83260000     -35.19620000     -69.88710000
H      -48.70870000     -36.20370000     -69.38300000
H      -49.92740000     -35.00860000     -69.86270000
C      -45.20570000     -37.03760000     -72.95620000
H      -45.57570000     -38.08370000     -72.78050000
H      -44.82900000     -37.02920000     -73.94890000
S      -48.12910000     -33.88650000     -68.83650000
S      -43.65200000     -36.95450000     -71.94290000
C      -47.17560000     -32.72030000     -69.87350000
H      -46.91530000     -33.15580000     -70.83050000
H      -47.79990000     -31.84530000     -70.16790000
C      -43.14930000     -35.17010000     -72.28040000
H      -43.14920000     -34.92460000     -73.40810000
H      -42.10940000     -35.23970000     -72.00140000
C      -43.90160000     -34.12580000     -71.40350000
H      -44.96710000     -34.19920000     -71.67890000
H      -43.91020000     -34.35550000     -70.27440000
C      -45.92440000     -32.26470000     -69.14180000
H      -45.39150000     -33.22290000     -68.88090000
H      -46.21680000     -31.79030000     -68.27450000
C      -45.04390000     -31.29480000     -69.87110000
C      -45.15930000     -29.94450000     -69.64600000
C      -43.98980000     -31.57030000     -70.85360000
H      -45.82030000     -29.51900000     -68.91690000
C      -43.40230000     -30.36780000     -71.34410000
C      -43.45420000     -32.72060000     -71.60830000
C      -42.48540000     -32.38520000     -72.53810000
S      -44.00750000     -28.90320000     -70.57460000
S      -42.15160000     -30.65460000     -72.55370000
H      -42.00880000     -32.99980000     -73.26220000
