40
Properties=species:S:1:pos:R:3 #=T CELL(abcABC):=T 1.889726e+02=T 90.00000=T Traj:=T positionsangstrom=T Step:=T 0=T Bead:=T pbc="F F F"
C      -46.92410000     -34.61340000     -73.93030000
C      -46.56920000     -35.72740000     -73.12400000
C      -47.07160000     -35.84360000     -71.82660000
C      -48.03680000     -34.90590000     -71.39390000
C      -48.41910000     -33.84570000     -72.19650000
C      -47.82140000     -33.62980000     -73.44570000
H      -46.45700000     -34.51190000     -74.91270000
H      -46.72360000     -36.66210000     -71.34120000
H      -49.13920000     -33.06050000     -71.74570000
H      -48.17280000     -32.81600000     -74.09570000
C      -48.76450000     -35.07180000     -70.09780000
H      -48.91220000     -36.15240000     -69.84080000
H      -49.78770000     -34.68010000     -70.23930000
C      -45.52430000     -36.68670000     -73.64360000
H      -46.04350000     -37.68330000     -73.80010000
H      -45.27000000     -36.41480000     -74.65700000
S      -48.09520000     -34.12030000     -68.59400000
S      -44.06100000     -36.98830000     -72.58500000
C      -46.88940000     -32.89300000     -69.37910000
H      -46.76270000     -33.20700000     -70.37490000
H      -47.31780000     -31.89760000     -69.35110000
C      -43.21050000     -35.30690000     -72.51060000
H      -43.28030000     -34.95900000     -73.57190000
H      -42.10350000     -35.51320000     -72.25820000
C      -43.95300000     -34.45600000     -71.45170000
H      -44.98580000     -34.65070000     -71.54690000
H      -43.70690000     -34.92260000     -70.51450000
C      -45.48260000     -32.72170000     -68.69600000
H      -45.01640000     -33.73170000     -68.69930000
H      -45.56010000     -32.43300000     -67.64360000
C      -44.65050000     -31.68810000     -69.47600000
C      -44.70340000     -30.35230000     -69.09730000
C      -43.87170000     -31.83120000     -70.67430000
H      -45.07750000     -29.95800000     -68.19200000
C      -43.51060000     -30.64660000     -71.23300000
C      -43.50590000     -32.99110000     -71.55390000
C      -42.70750000     -32.52570000     -72.54540000
S      -43.90330000     -29.29970000     -70.16220000
S      -42.54490000     -30.80950000     -72.68770000
H      -42.15890000     -33.07410000     -73.23660000
