40
Properties=species:S:1:pos:R:3 #=T CELL(abcABC):=T 1.889726e+02=T 90.00000=T Traj:=T positionsangstrom=T Step:=T 0=T Bead:=T pbc="F F F"
C      -47.06540000     -35.02390000     -73.89490000
C      -46.61230000     -36.02610000     -73.01460000
C      -47.15680000     -36.15950000     -71.70810000
C      -48.10980000     -35.26510000     -71.26270000
C      -48.44580000     -34.17640000     -72.15890000
C      -47.93570000     -34.06670000     -73.42180000
H      -46.64460000     -34.97470000     -74.93390000
H      -47.00260000     -37.11510000     -71.09590000
H      -49.15200000     -33.45190000     -71.90760000
H      -48.21360000     -33.28160000     -74.02410000
C      -48.60140000     -35.43230000     -69.87340000
H      -48.09200000     -36.17170000     -69.26410000
H      -49.68730000     -35.45140000     -69.83240000
C      -45.52350000     -37.00310000     -73.37450000
H      -45.89820000     -37.97090000     -73.34650000
H      -45.11010000     -36.73270000     -74.38370000
S      -48.12850000     -33.84440000     -68.81750000
S      -44.11920000     -36.97520000     -72.05720000
C      -46.85930000     -32.83930000     -69.74510000
H      -46.69870000     -33.35750000     -70.70020000
H      -47.22030000     -31.89090000     -70.10090000
C      -43.41750000     -35.27850000     -72.43710000
H      -43.74710000     -34.91020000     -73.46120000
H      -42.28740000     -35.38110000     -72.48900000
C      -43.82590000     -34.30560000     -71.33140000
H      -44.90500000     -34.23290000     -71.33030000
H      -43.44980000     -34.66150000     -70.37970000
C      -45.54860000     -32.60910000     -68.92380000
H      -45.00460000     -33.48390000     -68.84380000
H      -45.84950000     -32.29760000     -67.88050000
C      -44.69460000     -31.54200000     -69.62150000
C      -44.76430000     -30.17150000     -69.30450000
C      -43.90530000     -31.74210000     -70.82670000
H      -45.53420000     -29.87790000     -68.60500000
C      -43.39580000     -30.52100000     -71.28060000
C      -43.37080000     -32.87160000     -71.64010000
C      -42.46710000     -32.38360000     -72.59090000
S      -43.85150000     -29.12480000     -70.34740000
S      -42.47400000     -30.58320000     -72.75780000
H      -41.97310000     -33.01490000     -73.38860000
