40
Properties=species:S:1:pos:R:3 #=T CELL(abcABC):=T 1.889726e+02=T 90.00000=T Traj:=T positionsangstrom=T Step:=T 0=T Bead:=T pbc="F F F"
C      -46.99700000     -35.99020000     -73.87350000
C      -46.37100000     -36.35120000     -72.67660000
C      -46.91830000     -36.07460000     -71.44740000
C      -48.21280000     -35.49470000     -71.38110000
C      -48.80720000     -35.06440000     -72.58410000
C      -48.15700000     -35.26730000     -73.83340000
H      -46.67560000     -36.24750000     -74.78760000
H      -46.37890000     -36.33680000     -70.56710000
H      -49.84480000     -34.63080000     -72.60190000
H      -48.71640000     -34.90080000     -74.74250000
C      -48.90500000     -35.22300000     -70.05640000
H      -48.90080000     -36.11380000     -69.48100000
H      -49.89710000     -34.80410000     -70.12440000
C      -45.00470000     -37.08630000     -72.82210000
H      -45.43100000     -38.08750000     -72.69720000
H      -44.59140000     -36.96680000     -73.83400000
S      -47.99590000     -34.00270000     -68.81560000
S      -43.61130000     -36.77590000     -71.57260000
C      -47.34130000     -32.61080000     -69.92970000
H      -47.11340000     -32.97020000     -71.00330000
H      -48.05340000     -31.79810000     -69.94050000
C      -43.02510000     -35.07530000     -71.96370000
H      -42.96410000     -34.89790000     -73.03840000
H      -42.00960000     -34.91490000     -71.56990000
C      -43.99190000     -33.97870000     -71.34770000
H      -44.93250000     -34.03190000     -71.81690000
H      -44.08400000     -34.11940000     -70.28750000
C      -46.02780000     -32.25870000     -69.28670000
H      -45.37430000     -33.12990000     -69.19500000
H      -46.09640000     -31.94830000     -68.17640000
C      -45.23750000     -31.21870000     -70.12340000
C      -45.23160000     -29.88390000     -69.81860000
C      -44.13850000     -31.44540000     -71.06640000
H      -45.86150000     -29.29130000     -69.11230000
C      -43.44930000     -30.31070000     -71.41660000
C      -43.48600000     -32.61490000     -71.66590000
C      -42.35480000     -32.28830000     -72.37610000
S      -44.03780000     -28.88130000     -70.64100000
S      -42.12930000     -30.56650000     -72.48540000
H      -41.64420000     -32.88550000     -72.79450000
