40
Properties=species:S:1:pos:R:3 #=T CELL(abcABC):=T 1.889726e+02=T 90.00000=T Traj:=T positionsangstrom=T Step:=T 0=T Bead:=T pbc="F F F"
C      -47.73060000     -32.68640000     -74.35480000
C      -46.81570000     -33.77270000     -74.44250000
C      -45.44380000     -33.49540000     -74.44400000
C      -44.97710000     -32.19270000     -74.40860000
C      -45.85690000     -31.12830000     -74.35140000
C      -47.23420000     -31.37480000     -74.42840000
H      -48.73000000     -32.97900000     -74.46550000
H      -44.76870000     -34.30360000     -74.48750000
H      -45.51740000     -30.02850000     -74.28990000
H      -48.01990000     -30.60520000     -74.37790000
C      -43.48350000     -31.91730000     -74.39140000
H      -43.38310000     -30.81820000     -74.20700000
H      -43.09400000     -32.06800000     -75.39860000
C      -47.30860000     -35.14800000     -74.46720000
H      -48.24560000     -35.22870000     -75.06340000
H      -46.53440000     -35.75900000     -75.03670000
S      -42.30680000     -32.89230000     -73.40560000
S      -47.61430000     -36.05500000     -72.79600000
C      -43.01700000     -32.66710000     -71.77480000
H      -42.58040000     -31.85450000     -71.17990000
H      -44.08250000     -32.44060000     -71.84810000
C      -47.78970000     -34.71990000     -71.45250000
H      -48.29510000     -35.15180000     -70.63610000
H      -48.51590000     -33.95430000     -71.78010000
C      -46.47620000     -34.01080000     -71.23870000
H      -45.66800000     -34.59880000     -71.78660000
H      -46.49960000     -33.09740000     -71.81090000
C      -42.98970000     -33.91860000     -70.94220000
H      -42.00240000     -34.43050000     -70.83220000
H      -43.67330000     -34.60840000     -71.44150000
C      -43.50010000     -33.56750000     -69.54850000
C      -42.63490000     -33.09820000     -68.52910000
C      -44.85460000     -33.70770000     -69.11490000
H      -41.60600000     -33.35970000     -68.41700000
C      -44.95570000     -33.24340000     -67.77960000
C      -46.15750000     -33.76920000     -69.74460000
C      -47.13460000     -33.38500000     -68.87730000
S      -43.47460000     -32.78640000     -66.98860000
S      -46.65000000     -33.01770000     -67.20600000
H      -48.19760000     -33.16640000     -69.02020000
