40
Properties=species:S:1:pos:R:3 #=T CELL(abcABC):=T 1.889726e+02=T 90.00000=T Traj:=T positionsangstrom=T Step:=T 0=T Bead:=T pbc="F F F"
C      -47.75770000     -34.37190000     -73.74780000
C      -46.97780000     -35.48900000     -73.37580000
C      -47.17440000     -35.93300000     -72.04020000
C      -48.11500000     -35.43910000     -71.11520000
C      -48.92850000     -34.38320000     -71.64620000
C      -48.76370000     -33.84990000     -72.87890000
H      -47.74580000     -34.08180000     -74.74640000
H      -46.53940000     -36.76030000     -71.63520000
H      -49.62750000     -33.95650000     -71.02870000
H      -49.29850000     -32.92640000     -73.30110000
C      -48.17030000     -35.97420000     -69.68920000
H      -48.13740000     -37.06400000     -69.59150000
H      -49.12130000     -35.60520000     -69.27470000
C      -45.94470000     -36.10410000     -74.26050000
H      -46.31650000     -37.10720000     -74.47100000
H      -46.09490000     -35.62200000     -75.18300000
S      -46.55480000     -35.49210000     -68.80050000
S      -44.23590000     -36.21750000     -73.56760000
C      -46.25330000     -33.78350000     -69.49140000
H      -46.40210000     -33.90090000     -70.60400000
H      -47.06390000     -33.10520000     -69.10760000
C      -43.68800000     -34.43110000     -73.46720000
H      -43.85420000     -33.97880000     -74.44900000
H      -42.58660000     -34.48550000     -73.52990000
C      -44.18210000     -33.78430000     -72.18970000
H      -45.27660000     -33.89480000     -72.19190000
H      -43.72650000     -34.27570000     -71.32020000
C      -44.84750000     -33.48600000     -68.90760000
H      -44.10550000     -34.34600000     -69.06650000
H      -45.05880000     -33.52180000     -67.83250000
C      -44.32660000     -32.12860000     -69.31520000
C      -44.07910000     -31.13960000     -68.37480000
C      -44.01020000     -31.69930000     -70.65290000
H      -44.08570000     -31.13160000     -67.32560000
C      -43.66700000     -30.33610000     -70.71220000
C      -43.89710000     -32.28650000     -71.97940000
C      -43.46910000     -31.36590000     -72.92090000
S      -43.47060000     -29.63540000     -69.10060000
S      -43.29260000     -29.74630000     -72.29530000
H      -43.44580000     -31.63130000     -73.95270000
