40
Properties=species:S:1:pos:R:3 #=T CELL(abcABC):=T 1.889726e+02=T 90.00000=T Traj:=T positionsangstrom=T Step:=T 0=T Bead:=T pbc="F F F"
C      -44.94040000     -30.93910000     -68.54060000
C      -45.74210000     -31.89710000     -69.13600000
C      -46.51650000     -31.57810000     -70.26830000
C      -46.43410000     -30.31700000     -70.84890000
C      -45.52460000     -29.37070000     -70.31170000
C      -44.84990000     -29.67890000     -69.15830000
H      -44.39710000     -31.15990000     -67.62080000
H      -47.14210000     -32.27860000     -70.75330000
H      -45.31890000     -28.40270000     -70.76300000
H      -44.18950000     -29.00800000     -68.59030000
C      -47.20730000     -29.85360000     -72.11810000
H      -46.65070000     -29.05330000     -72.67930000
H      -48.19230000     -29.43200000     -71.86040000
C      -45.97540000     -33.33760000     -68.51980000
H      -46.69700000     -33.25650000     -67.64960000
H      -46.45670000     -33.98980000     -69.23580000
S      -47.44380000     -31.33160000     -73.25670000
S      -44.50920000     -34.14260000     -67.68680000
C      -45.70830000     -31.39550000     -73.96770000
H      -45.81730000     -31.66020000     -75.04250000
H      -45.34240000     -30.33750000     -73.96750000
C      -43.00660000     -33.87750000     -68.84670000
H      -42.30090000     -34.73870000     -68.74610000
H      -42.49540000     -32.99230000     -68.52210000
C      -43.23380000     -33.74200000     -70.38330000
H      -43.81960000     -32.80470000     -70.63540000
H      -42.20560000     -33.56580000     -70.82090000
C      -44.73880000     -32.34990000     -73.30050000
H      -44.69450000     -31.96170000     -72.26580000
H      -43.75920000     -32.14030000     -73.73630000
C      -44.94220000     -33.82070000     -73.30500000
C      -45.71510000     -34.37480000     -74.34090000
C      -44.65540000     -34.84380000     -72.32470000
H      -46.18760000     -33.77810000     -75.12910000
C      -45.19810000     -36.12600000     -72.71700000
C      -43.90520000     -34.90420000     -71.06650000
C      -43.59610000     -36.23810000     -70.73120000
S      -46.15970000     -36.04150000     -74.12870000
S      -44.69070000     -37.33730000     -71.60880000
H      -43.12120000     -36.53750000     -69.77800000
