40
Properties=species:S:1:pos:R:3 #=T CELL(abcABC):=T 1.889726e+02=T 90.00000=T Traj:=T positionsangstrom=T Step:=T 0=T Bead:=T pbc="F F F"
C      -46.60290000     -37.12740000     -71.81680000
C      -45.72770000     -36.52960000     -72.73230000
C      -46.22140000     -35.40420000     -73.49040000
C      -47.56620000     -35.01760000     -73.25130000
C      -48.48310000     -35.71360000     -72.41420000
C      -47.94660000     -36.76770000     -71.65390000
H      -46.28180000     -37.85520000     -71.10630000
H      -45.70810000     -34.88200000     -74.18130000
H      -49.57120000     -35.68240000     -72.40990000
H      -48.56020000     -37.39070000     -71.05400000
C      -48.10920000     -33.83360000     -73.95360000
H      -49.14500000     -33.87540000     -74.29040000
H      -47.55670000     -33.65400000     -74.85400000
C      -44.27230000     -37.11000000     -72.70810000
H      -44.32860000     -38.19490000     -72.77390000
H      -43.68190000     -36.68510000     -73.53040000
S      -47.80400000     -32.34140000     -72.84370000
S      -43.36050000     -36.73500000     -71.08610000
C      -48.02950000     -32.88010000     -71.07570000
H      -48.72440000     -32.19410000     -70.60240000
H      -48.57640000     -33.80830000     -71.08780000
C      -43.24100000     -34.89860000     -71.08190000
H      -43.84360000     -34.50570000     -71.92240000
H      -42.21490000     -34.52780000     -71.21280000
C      -43.79850000     -34.27140000     -69.76020000
H      -44.88400000     -34.33740000     -69.67310000
H      -43.29080000     -34.66830000     -68.81790000
C      -46.69060000     -32.89560000     -70.39070000
H      -46.15030000     -33.81860000     -70.78360000
H      -46.90310000     -33.04960000     -69.36440000
C      -45.84740000     -31.66180000     -70.55030000
C      -46.20250000     -30.38630000     -70.87330000
C      -44.42210000     -31.69580000     -70.12810000
H      -47.10030000     -30.05640000     -71.24510000
C      -43.75840000     -30.45280000     -70.22390000
C      -43.50390000     -32.76500000     -69.70560000
C      -42.26210000     -32.25250000     -69.49920000
S      -44.85970000     -29.23900000     -70.68550000
S      -42.13580000     -30.50480000     -69.70670000
H      -41.35170000     -32.79680000     -69.29570000
