40
Properties=species:S:1:pos:R:3 #=T CELL(abcABC):=T 1.889726e+02=T 90.00000=T Traj:=T positionsangstrom=T Step:=T 0=T Bead:=T pbc="F F F"
C      -47.05570000     -34.42560000     -73.90980000
C      -46.72640000     -35.57740000     -73.16170000
C      -47.30850000     -35.69980000     -71.92770000
C      -48.20060000     -34.74570000     -71.47200000
C      -48.56660000     -33.62600000     -72.21650000
C      -48.03620000     -33.51260000     -73.52020000
H      -46.56730000     -34.40840000     -74.90690000
H      -46.89300000     -36.42000000     -71.17620000
H      -49.35530000     -33.08170000     -71.82080000
H      -48.19570000     -32.61150000     -74.10800000
C      -48.78260000     -34.91770000     -70.09090000
H      -49.17560000     -35.94240000     -70.08290000
H      -49.65710000     -34.25460000     -69.98400000
C      -45.79260000     -36.58920000     -73.71840000
H      -46.20160000     -37.59790000     -73.84900000
H      -45.47800000     -36.31990000     -74.76890000
S      -47.56940000     -34.65650000     -68.71740000
S      -44.32560000     -36.81780000     -72.68080000
C      -46.94020000     -33.01400000     -69.09970000
H      -47.17220000     -32.78050000     -70.15730000
H      -47.43720000     -32.31990000     -68.38770000
C      -43.45690000     -35.19760000     -72.72740000
H      -43.62760000     -34.70870000     -73.65420000
H      -42.40990000     -35.39150000     -72.64310000
C      -43.85340000     -34.34000000     -71.55550000
H      -44.94830000     -34.41220000     -71.44070000
H      -43.46110000     -34.79150000     -70.59680000
C      -45.39310000     -33.05350000     -68.96070000
H      -45.00030000     -33.95520000     -69.50520000
H      -45.13760000     -33.18260000     -67.91130000
C      -44.63870000     -31.88560000     -69.48160000
C      -44.75150000     -30.59120000     -68.94430000
C      -43.83570000     -31.95830000     -70.66840000
H      -45.45340000     -30.26400000     -68.17270000
C      -43.34990000     -30.65060000     -71.02260000
C      -43.37130000     -32.89350000     -71.66060000
C      -42.61820000     -32.39760000     -72.65000000
S      -43.82020000     -29.41780000     -69.93390000
S      -42.42550000     -30.60190000     -72.48260000
H      -42.40410000     -32.97340000     -73.56020000
