40
Properties=species:S:1:pos:R:3 #=T CELL(abcABC):=T 1.889726e+02=T 90.00000=T Traj:=T positionsangstrom=T Step:=T 0=T Bead:=T pbc="F F F"
C      -43.31650000     -36.56020000     -70.40060000
C      -44.52430000     -36.65350000     -71.12040000
C      -45.71980000     -36.52820000     -70.36090000
C      -45.75790000     -35.80260000     -69.12030000
C      -44.50170000     -35.78520000     -68.45270000
C      -43.30830000     -36.02460000     -69.10610000
H      -42.35110000     -36.82950000     -70.83520000
H      -46.72270000     -36.65990000     -70.86490000
H      -44.39290000     -35.34180000     -67.52680000
H      -42.43940000     -35.99460000     -68.54360000
C      -47.06160000     -35.46320000     -68.43300000
H      -47.22680000     -36.06400000     -67.51610000
H      -47.83330000     -35.58520000     -69.12890000
C      -44.48000000     -37.16050000     -72.57700000
H      -43.90480000     -37.98680000     -72.82150000
H      -45.48540000     -37.47500000     -72.91180000
S      -47.02890000     -33.73630000     -67.80350000
S      -43.59180000     -35.97520000     -73.62850000
C      -46.52990000     -32.65070000     -69.13330000
H      -46.90500000     -31.66280000     -68.95670000
H      -45.45290000     -32.56930000     -69.17790000
C      -44.51410000     -34.36910000     -73.38290000
H      -45.64230000     -34.52120000     -73.32810000
H      -44.26050000     -33.81550000     -74.28310000
C      -43.98920000     -33.57940000     -72.16390000
H      -44.35210000     -34.01190000     -71.21650000
H      -42.92940000     -33.63360000     -72.19550000
C      -47.05360000     -33.05180000     -70.52780000
H      -48.12970000     -33.26860000     -70.49360000
H      -46.50600000     -33.98370000     -70.83940000
C      -46.79760000     -31.88720000     -71.43650000
C      -47.70940000     -30.83400000     -71.63150000
C      -45.47360000     -31.46610000     -72.10840000
H      -48.73230000     -30.69220000     -71.18630000
C      -45.57980000     -30.18670000     -72.66820000
C      -44.21380000     -32.13690000     -72.32110000
C      -43.41000000     -31.30820000     -73.12550000
S      -47.10940000     -29.48460000     -72.51220000
S      -44.08880000     -29.71790000     -73.49710000
H      -42.40360000     -31.46970000     -73.41330000
