40
Properties=species:S:1:pos:R:3 #=T CELL(abcABC):=T 1.889726e+02=T 90.00000=T Traj:=T positionsangstrom=T Step:=T 0=T Bead:=T pbc="F F F"
C      -43.30060000     -36.65770000     -70.50340000
C      -44.51110000     -36.69080000     -71.14780000
C      -45.68560000     -36.28980000     -70.50860000
C      -45.64970000     -35.93940000     -69.13750000
C      -44.41550000     -35.86610000     -68.53360000
C      -43.27440000     -36.24940000     -69.20260000
H      -42.39840000     -36.87360000     -71.00110000
H      -46.59620000     -36.40480000     -71.03720000
H      -44.21620000     -35.62480000     -67.50040000
H      -42.38140000     -36.25000000     -68.59860000
C      -46.88780000     -35.62140000     -68.38940000
H      -47.15160000     -36.28020000     -67.51200000
H      -47.76930000     -35.69730000     -69.12350000
C      -44.61700000     -37.10920000     -72.57660000
H      -44.16070000     -38.13540000     -72.72710000
H      -45.70930000     -37.23850000     -72.74010000
S      -46.94570000     -33.86700000     -67.74660000
S      -43.63410000     -35.94670000     -73.67980000
C      -46.44530000     -32.69950000     -69.11990000
H      -46.88570000     -31.72120000     -68.75890000
H      -45.36540000     -32.54910000     -69.19910000
C      -44.41290000     -34.29870000     -73.21420000
H      -45.44950000     -34.43080000     -72.88940000
H      -44.54090000     -33.79570000     -74.13430000
C      -43.71180000     -33.41330000     -72.13720000
H      -43.97960000     -33.90070000     -71.16000000
H      -42.60650000     -33.34660000     -72.26260000
C      -46.99040000     -33.10790000     -70.56400000
H      -48.05410000     -33.42210000     -70.54380000
H      -46.45820000     -33.96840000     -70.97780000
C      -46.80770000     -31.87800000     -71.50280000
C      -47.81590000     -30.96710000     -71.64700000
C      -45.57310000     -31.43700000     -72.11730000
H      -48.88910000     -30.98880000     -71.48010000
C      -45.70790000     -30.22880000     -72.75350000
C      -44.27260000     -32.03330000     -72.27130000
C      -43.41060000     -31.12070000     -72.87650000
S      -47.27070000     -29.43690000     -72.55970000
S      -44.15860000     -29.59440000     -73.41730000
H      -42.38190000     -31.22480000     -73.21300000
