40
Properties=species:S:1:pos:R:3 #=T CELL(abcABC):=T 1.889726e+02=T 90.00000=T Traj:=T positionsangstrom=T Step:=T 0=T Bead:=T pbc="F F F"
C      -43.45480000     -36.60330000     -69.87300000
C      -44.59250000     -36.67160000     -70.64380000
C      -45.77220000     -36.19990000     -70.07960000
C      -45.83340000     -35.64510000     -68.79590000
C      -44.68930000     -35.53880000     -68.02560000
C      -43.49450000     -35.94220000     -68.63030000
H      -42.49580000     -36.70010000     -70.33990000
H      -46.77700000     -36.15680000     -70.64080000
H      -44.69750000     -35.05330000     -67.06510000
H      -42.62310000     -35.49440000     -68.20740000
C      -47.15720000     -35.17360000     -68.29090000
H      -47.42950000     -35.61460000     -67.33940000
H      -47.94490000     -35.55670000     -68.94900000
C      -44.52850000     -37.35970000     -72.00670000
H      -44.07170000     -38.30980000     -71.94490000
H      -45.46090000     -37.45850000     -72.49700000
S      -47.26860000     -33.37210000     -67.94800000
S      -43.26240000     -36.39710000     -73.04840000
C      -46.35940000     -32.68040000     -69.42220000
H      -46.00160000     -31.64960000     -69.05890000
H      -45.45140000     -33.28010000     -69.50180000
C      -44.07010000     -34.82490000     -73.58990000
H      -45.01280000     -35.08560000     -74.08350000
H      -43.41280000     -34.45430000     -74.37890000
C      -44.43170000     -33.89870000     -72.46190000
H      -45.35710000     -34.33530000     -71.97460000
H      -43.70640000     -33.90630000     -71.60250000
C      -47.25680000     -32.62730000     -70.80430000
H      -48.28690000     -32.58490000     -70.54360000
H      -47.04030000     -33.59610000     -71.29340000
C      -46.82300000     -31.48500000     -71.62400000
C      -47.46190000     -30.28690000     -71.48180000
C      -45.70240000     -31.48290000     -72.47130000
H      -48.25700000     -30.12870000     -70.77560000
C      -45.47460000     -30.25890000     -73.09850000
C      -44.61920000     -32.43550000     -72.81410000
C      -43.70370000     -31.89190000     -73.63190000
S      -46.66300000     -29.06540000     -72.54440000
S      -44.03240000     -30.23650000     -74.05980000
H      -42.80710000     -32.45830000     -73.84020000
