40
Properties=species:S:1:pos:R:3 #=T CELL(abcABC):=T 1.889726e+02=T 90.00000=T Traj:=T positionsangstrom=T Step:=T 0=T Bead:=T pbc="F F F"
C      -46.62240000     -37.27470000     -71.71870000
C      -45.67050000     -36.68380000     -72.58350000
C      -46.04830000     -35.49860000     -73.24770000
C      -47.38530000     -35.06730000     -73.15360000
C      -48.39210000     -35.83610000     -72.53850000
C      -47.96600000     -36.95020000     -71.81780000
H      -46.37520000     -38.15850000     -71.15310000
H      -45.32560000     -34.88340000     -73.76950000
H      -49.44680000     -35.55430000     -72.55580000
H      -48.63250000     -37.41420000     -71.16100000
C      -47.71020000     -33.87150000     -73.96480000
H      -48.69860000     -34.10960000     -74.46170000
H      -47.02050000     -33.77280000     -74.82560000
C      -44.22670000     -37.13880000     -72.63930000
H      -44.01250000     -38.19320000     -72.86950000
H      -43.82090000     -36.71470000     -73.60490000
S      -47.76470000     -32.24680000     -73.15920000
S      -43.32510000     -36.64420000     -71.09540000
C      -48.09420000     -32.62700000     -71.32530000
H      -48.64930000     -31.77370000     -70.85890000
H      -48.55670000     -33.59970000     -71.26980000
C      -43.55770000     -34.79490000     -71.07500000
H      -44.49290000     -34.57660000     -71.79200000
H      -42.69240000     -34.29160000     -71.52390000
C      -43.80410000     -34.22080000     -69.63630000
H      -44.76340000     -34.53980000     -69.27550000
H      -43.13160000     -34.70140000     -68.99980000
C      -46.81530000     -32.82800000     -70.56770000
H      -46.18140000     -33.69990000     -71.08080000
H      -47.07310000     -33.21970000     -69.55810000
C      -45.89940000     -31.61630000     -70.41350000
C      -46.29950000     -30.30190000     -70.57040000
C      -44.52590000     -31.73640000     -69.99140000
H      -47.17220000     -29.86970000     -70.91290000
C      -43.84210000     -30.49530000     -70.11270000
C      -43.59740000     -32.76590000     -69.65750000
C      -42.32310000     -32.34150000     -69.53540000
S      -44.93730000     -29.18570000     -70.52810000
S      -42.11160000     -30.59790000     -69.79740000
H      -41.37150000     -32.94800000     -69.38580000
