40
Properties=species:S:1:pos:R:3 #=T CELL(abcABC):=T 1.889726e+02=T 90.00000=T Traj:=T positionsangstrom=T Step:=T 0=T Bead:=T pbc="F F F"
C      -48.04580000     -35.01740000     -73.77230000
C      -46.95650000     -35.73740000     -73.32440000
C      -46.80940000     -35.96830000     -71.95680000
C      -47.69090000     -35.52480000     -70.98790000
C      -48.80410000     -34.78000000     -71.51660000
C      -49.07330000     -34.64630000     -72.88510000
H      -48.24510000     -34.93690000     -74.82730000
H      -46.01140000     -36.61550000     -71.60700000
H      -49.45090000     -34.36530000     -70.70740000
H      -49.95300000     -34.14920000     -73.18480000
C      -47.61330000     -36.16040000     -69.54740000
H      -47.78750000     -37.19710000     -69.74240000
H      -48.44170000     -35.84780000     -68.87200000
C      -45.92540000     -36.19380000     -74.41610000
H      -46.08810000     -37.28010000     -74.38110000
H      -46.26260000     -35.80330000     -75.42830000
S      -45.97150000     -35.77270000     -68.78140000
S      -44.20860000     -35.78020000     -73.87470000
C      -46.03300000     -33.94400000     -69.03100000
H      -46.43430000     -33.76660000     -70.02100000
H      -46.78830000     -33.55790000     -68.31400000
C      -44.22550000     -33.95570000     -73.75550000
H      -44.67540000     -33.52880000     -74.66400000
H      -43.18350000     -33.59520000     -74.04970000
C      -44.76100000     -33.44390000     -72.42280000
H      -45.84190000     -33.46880000     -72.47240000
H      -44.47080000     -34.11780000     -71.62410000
C      -44.61680000     -33.48330000     -68.94850000
H      -44.03160000     -34.12490000     -69.54610000
H      -44.20230000     -33.74700000     -67.97350000
C      -44.31390000     -32.01350000     -69.26790000
C      -44.06450000     -31.09330000     -68.33000000
C      -44.09990000     -31.54420000     -70.63650000
H      -43.96270000     -31.34140000     -67.23520000
C      -43.73450000     -30.20630000     -70.62730000
C      -44.34310000     -32.04730000     -72.01470000
C      -44.05000000     -31.13990000     -72.94440000
S      -43.55400000     -29.55950000     -69.02400000
S      -43.43470000     -29.60030000     -72.22230000
H      -44.07380000     -31.09900000     -74.08550000
