40
Properties=species:S:1:pos:R:3 #=T CELL(abcABC):=T 1.889726e+02=T 90.00000=T Traj:=T positionsangstrom=T Step:=T 0=T Bead:=T pbc="F F F"
C      -48.06980000     -35.38080000     -72.66120000
C      -46.79240000     -35.80450000     -72.93760000
C      -46.04570000     -36.30580000     -71.88830000
C      -46.51380000     -36.32130000     -70.50800000
C      -47.81970000     -35.96440000     -70.33350000
C      -48.57090000     -35.42340000     -71.41350000
H      -48.67690000     -34.98250000     -73.50380000
H      -44.98810000     -36.74560000     -72.01320000
H      -48.27750000     -36.03940000     -69.38720000
H      -49.57240000     -35.04840000     -71.17030000
C      -45.75400000     -36.84750000     -69.34990000
H      -45.67740000     -37.93360000     -69.34440000
H      -46.44310000     -36.66730000     -68.50040000
C      -46.16650000     -35.86530000     -74.34260000
H      -46.19100000     -36.85860000     -74.61700000
H      -46.80880000     -35.32930000     -74.94480000
S      -44.08780000     -36.08280000     -69.24780000
S      -44.38950000     -35.27400000     -74.37770000
C      -44.42900000     -34.27000000     -68.88080000
H      -45.46610000     -34.05590000     -69.27560000
H      -44.44360000     -34.07400000     -67.82770000
C      -44.73510000     -33.52820000     -74.11990000
H      -45.82070000     -33.31970000     -74.14840000
H      -44.30480000     -32.98540000     -74.91470000
C      -44.26970000     -33.11670000     -72.70280000
H      -44.63350000     -33.82750000     -71.94740000
H      -43.17960000     -33.16850000     -72.69550000
C      -43.47680000     -33.27000000     -69.57780000
H      -43.10480000     -33.50050000     -70.57270000
H      -42.59440000     -33.11150000     -68.85450000
C      -44.09080000     -31.80740000     -69.73730000
C      -44.24050000     -30.99730000     -68.60210000
C      -44.60710000     -31.24360000     -70.91520000
H      -43.82090000     -31.20300000     -67.66170000
C      -45.17720000     -29.99550000     -70.71350000
C      -44.72760000     -31.66550000     -72.31790000
C      -45.38020000     -30.72890000     -73.06850000
S      -44.85790000     -29.45490000     -69.03550000
S      -45.77290000     -29.25490000     -72.21010000
H      -45.38030000     -30.74580000     -74.12350000
