40
Properties=species:S:1:pos:R:3 #=T CELL(abcABC):=T 1.889726e+02=T 90.00000=T Traj:=T positionsangstrom=T Step:=T 0=T Bead:=T pbc="F F F"
C      -48.07130000     -35.36180000     -72.71930000
C      -46.79650000     -35.85680000     -72.86360000
C      -46.07810000     -36.24430000     -71.72420000
C      -46.70940000     -36.22780000     -70.50560000
C      -48.01490000     -35.71210000     -70.42880000
C      -48.69390000     -35.31020000     -71.53760000
H      -48.59200000     -34.88110000     -73.50380000
H      -45.15960000     -36.69960000     -71.81010000
H      -48.45980000     -35.63170000     -69.48130000
H      -49.64160000     -34.86780000     -71.50050000
C      -46.01420000     -36.70180000     -69.31950000
H      -45.74210000     -37.77500000     -69.48040000
H      -46.58440000     -36.69530000     -68.39030000
C      -46.30920000     -35.87440000     -74.35110000
H      -46.51930000     -36.88110000     -74.75190000
H      -46.97450000     -35.21920000     -74.89800000
S      -44.33890000     -35.87610000     -68.94030000
S      -44.59240000     -35.31190000     -74.72900000
C      -44.73250000     -34.18280000     -69.38400000
H      -44.99560000     -34.23730000     -70.43420000
H      -45.57650000     -33.82290000     -68.74420000
C      -44.67520000     -33.55720000     -74.21610000
H      -45.72540000     -33.30910000     -74.29170000
H      -44.08300000     -32.90140000     -74.92180000
C      -44.11990000     -33.20960000     -72.78770000
H      -44.44140000     -34.04330000     -72.13140000
H      -43.01490000     -33.29980000     -72.73070000
C      -43.50000000     -33.28350000     -69.18330000
H      -42.76090000     -33.60960000     -70.01610000
H      -42.96430000     -33.35890000     -68.23230000
C      -43.93760000     -31.87500000     -69.50990000
C      -44.01730000     -30.88000000     -68.56420000
C      -44.44950000     -31.40990000     -70.79650000
H      -43.71390000     -31.01600000     -67.50440000
C      -44.81740000     -30.03370000     -70.71090000
C      -44.54160000     -31.91120000     -72.14620000
C      -45.01620000     -30.97910000     -73.00450000
S      -44.75310000     -29.36540000     -69.10940000
S      -45.53690000     -29.49230000     -72.16920000
H      -45.26870000     -31.11720000     -74.01920000
