40
Properties=species:S:1:pos:R:3 #=T CELL(abcABC):=T 1.889726e+02=T 90.00000=T Traj:=T positionsangstrom=T Step:=T 0=T Bead:=T pbc="F F F"
C      -48.12800000     -35.37170000     -72.71490000
C      -46.83240000     -35.82900000     -72.90560000
C      -46.04610000     -36.21530000     -71.77010000
C      -46.63220000     -36.21330000     -70.49280000
C      -47.97530000     -35.82250000     -70.42350000
C      -48.76180000     -35.40370000     -71.49550000
H      -48.80140000     -35.03590000     -73.53670000
H      -44.94160000     -36.44260000     -71.83970000
H      -48.33970000     -35.85250000     -69.48090000
H      -49.83410000     -35.15720000     -71.33570000
C      -45.84620000     -36.70320000     -69.36630000
H      -45.66110000     -37.73950000     -69.50250000
H      -46.42700000     -36.51430000     -68.44390000
C      -46.19160000     -35.94620000     -74.31620000
H      -45.99140000     -37.02110000     -74.66200000
H      -46.83880000     -35.61110000     -75.17180000
S      -44.20640000     -35.95650000     -69.12640000
S      -44.47510000     -35.26570000     -74.52840000
C      -44.72530000     -34.17920000     -69.19140000
H      -45.51400000     -34.09690000     -69.90650000
H      -45.22850000     -33.85890000     -68.25840000
C      -44.61290000     -33.43020000     -74.10740000
H      -45.63140000     -33.12130000     -74.28760000
H      -43.90730000     -32.86110000     -74.77170000
C      -44.17040000     -33.19700000     -72.67980000
H      -44.59500000     -33.93610000     -71.99880000
H      -43.06140000     -33.36080000     -72.59810000
C      -43.49770000     -33.28290000     -69.36570000
H      -42.81980000     -33.68650000     -70.04770000
H      -42.99580000     -33.33840000     -68.39920000
C      -43.95490000     -31.85290000     -69.63170000
C      -44.03980000     -30.94140000     -68.58930000
C      -44.45470000     -31.36370000     -70.87650000
H      -43.77540000     -31.15970000     -67.55750000
C      -44.90810000     -30.04820000     -70.73690000
C      -44.56760000     -31.81920000     -72.26130000
C      -45.17440000     -30.83920000     -73.00360000
S      -44.91980000     -29.48980000     -69.10210000
S      -45.62300000     -29.38100000     -72.15830000
H      -45.46230000     -30.88490000     -73.99320000
