40
Properties=species:S:1:pos:R:3 #=T CELL(abcABC):=T 1.889726e+02=T 90.00000=T Traj:=T positionsangstrom=T Step:=T 0=T Bead:=T pbc="F F F"
C      -47.91360000     -34.72990000     -72.85650000
C      -46.95210000     -35.69140000     -73.02060000
C      -46.42800000     -36.41140000     -71.94680000
C      -47.03280000     -36.25860000     -70.73130000
C      -47.92950000     -35.18920000     -70.50280000
C      -48.40500000     -34.44150000     -71.57140000
H      -48.29640000     -34.04640000     -73.70390000
H      -45.61840000     -37.16710000     -72.07960000
H      -48.30040000     -34.99730000     -69.52440000
H      -49.04690000     -33.53510000     -71.40640000
C      -46.49540000     -36.79890000     -69.45910000
H      -46.50200000     -37.85620000     -69.34510000
H      -47.17950000     -36.54200000     -68.62820000
C      -46.34650000     -35.96990000     -74.34600000
H      -46.32490000     -37.06910000     -74.55780000
H      -46.85720000     -35.33250000     -75.10270000
S      -44.83870000     -36.25120000     -68.97370000
S      -44.61440000     -35.36810000     -74.44730000
C      -45.13780000     -34.35880000     -69.16980000
H      -45.71250000     -34.31620000     -70.06690000
H      -45.84840000     -33.94770000     -68.34850000
C      -44.95610000     -33.63150000     -74.04180000
H      -45.93920000     -33.46030000     -74.42410000
H      -44.20260000     -32.99790000     -74.70440000
C      -44.90480000     -33.33990000     -72.54900000
H      -45.89750000     -33.64930000     -72.09850000
H      -44.27940000     -34.03130000     -71.91230000
C      -43.81610000     -33.56470000     -69.26560000
H      -43.35090000     -33.99440000     -70.16430000
H      -43.01530000     -33.79690000     -68.44510000
C      -44.10580000     -32.06470000     -69.50160000
C      -43.89150000     -31.13760000     -68.50560000
C      -44.53860000     -31.46250000     -70.77720000
H      -43.39030000     -31.36250000     -67.56460000
C      -44.45200000     -30.08310000     -70.74750000
C      -44.70240000     -31.91170000     -72.16280000
C      -44.76450000     -30.89000000     -73.08870000
S      -44.05160000     -29.46530000     -69.10370000
S      -44.72880000     -29.22240000     -72.25730000
H      -44.73220000     -31.00920000     -74.19400000
