40
Properties=species:S:1:pos:R:3 #=T CELL(abcABC):=T 1.889726e+02=T 90.00000=T Traj:=T positionsangstrom=T Step:=T 0=T Bead:=T pbc="F F F"
C      -43.09230000     -36.80690000     -70.51560000
C      -44.29440000     -36.61690000     -71.28660000
C      -45.43350000     -36.36980000     -70.53790000
C      -45.46000000     -36.23900000     -69.13510000
C      -44.31810000     -36.42780000     -68.41000000
C      -43.10660000     -36.74050000     -69.11010000
H      -42.11930000     -36.86950000     -71.08120000
H      -46.44200000     -36.22390000     -70.97250000
H      -44.33420000     -36.18620000     -67.33460000
H      -42.22190000     -36.83750000     -68.54220000
C      -46.80040000     -35.86610000     -68.51280000
H      -46.94970000     -36.72490000     -67.70420000
H      -47.60930000     -35.99130000     -69.27470000
C      -44.19030000     -36.70050000     -72.85870000
H      -43.75060000     -37.75610000     -73.03810000
H      -45.07000000     -36.50410000     -73.47360000
S      -46.88020000     -34.19970000     -67.75070000
S      -42.94070000     -35.54840000     -73.57350000
C      -46.26140000     -33.12370000     -69.17360000
H      -46.26310000     -32.10890000     -68.72930000
H      -45.28170000     -33.50210000     -69.42370000
C      -43.90790000     -33.96830000     -73.67730000
H      -44.81520000     -34.27210000     -74.17010000
H      -43.18680000     -33.41880000     -74.29040000
C      -44.06110000     -33.27220000     -72.36130000
H      -44.69530000     -33.87770000     -71.67040000
H      -43.00190000     -33.20310000     -71.85860000
C      -47.09800000     -33.09630000     -70.46570000
H      -48.13470000     -33.30320000     -70.21410000
H      -46.74620000     -33.91550000     -71.11450000
C      -46.88870000     -31.81830000     -71.22790000
C      -47.79810000     -30.85040000     -71.02710000
C      -45.86200000     -31.42990000     -72.13460000
H      -48.59180000     -30.95110000     -70.32950000
C      -46.12100000     -30.14380000     -72.65160000
C      -44.60140000     -31.87370000     -72.60930000
C      -43.93010000     -30.91230000     -73.36830000
S      -47.43170000     -29.34290000     -71.88860000
S      -44.94200000     -29.48550000     -73.79710000
H      -43.03250000     -31.02530000     -73.90190000
