40
Properties=species:S:1:pos:R:3 #=T CELL(abcABC):=T 1.889726e+02=T 90.00000=T Traj:=T positionsangstrom=T Step:=T 0=T Bead:=T pbc="F F F"
C      -48.75810000     -35.45870000     -70.21660000
C      -48.45240000     -34.06220000     -70.10950000
C      -47.58210000     -33.57170000     -69.12830000
C      -46.91060000     -34.50220000     -68.32360000
C      -47.17960000     -35.87850000     -68.37580000
C      -48.03250000     -36.27100000     -69.36900000
H      -49.60740000     -35.89860000     -70.75850000
H      -47.33340000     -32.48740000     -69.14320000
H      -46.71490000     -36.70350000     -67.71690000
H      -48.27920000     -37.29030000     -69.39680000
C      -45.85380000     -33.96390000     -67.25290000
H      -45.16920000     -34.81610000     -67.03860000
H      -46.23580000     -33.64030000     -66.23460000
C      -49.19850000     -32.96770000     -70.97990000
H      -49.52130000     -33.44120000     -71.95750000
H      -50.03680000     -32.44110000     -70.40230000
S      -44.75850000     -32.66390000     -67.98090000
S      -48.18570000     -31.45930000     -71.27950000
C      -44.14430000     -33.55880000     -69.43470000
H      -43.32350000     -34.32220000     -69.25660000
H      -44.95590000     -34.05300000     -69.92030000
C      -46.84650000     -31.78880000     -72.50410000
H      -46.19580000     -30.90590000     -72.40280000
H      -47.31110000     -31.71850000     -73.47700000
C      -46.19250000     -33.15900000     -72.29770000
H      -45.91980000     -33.28330000     -71.22380000
H      -46.94990000     -33.96160000     -72.54370000
C      -43.58790000     -32.41920000     -70.36760000
H      -42.77800000     -31.78170000     -69.84330000
H      -44.41320000     -31.78620000     -70.62280000
C      -42.94550000     -32.86010000     -71.66930000
C      -41.56400000     -32.78220000     -71.89660000
C      -43.62480000     -33.31950000     -72.86570000
H      -40.83760000     -32.50650000     -71.19510000
C      -42.75790000     -33.59360000     -73.90920000
C      -45.01810000     -33.40110000     -73.21630000
C      -45.14450000     -33.59320000     -74.56940000
S      -41.10950000     -33.14370000     -73.59460000
S      -43.57210000     -33.78410000     -75.39860000
H      -46.07600000     -33.74210000     -75.13760000
