40
Properties=species:S:1:pos:R:3 #=T CELL(abcABC):=T 1.889726e+02=T 90.00000=T Traj:=T positionsangstrom=T Step:=T 0=T Bead:=T pbc="F F F"
C      -47.73460000     -35.79370000     -72.37120000
C      -46.52910000     -36.24980000     -72.92790000
C      -45.49330000     -36.65650000     -72.04450000
C      -45.64490000     -36.60000000     -70.63500000
C      -46.91920000     -36.23750000     -70.07370000
C      -47.89170000     -35.83690000     -70.97560000
H      -48.56900000     -35.55730000     -72.98220000
H      -44.58290000     -36.98450000     -72.41420000
H      -47.09480000     -36.32830000     -68.98690000
H      -48.76390000     -35.61480000     -70.39080000
C      -44.51260000     -37.12710000     -69.75180000
H      -43.93610000     -37.85180000     -70.35580000
H      -44.86420000     -37.75860000     -68.84850000
C      -46.29400000     -36.15520000     -74.42370000
H      -45.99010000     -37.20110000     -74.79850000
H      -47.19280000     -35.75590000     -74.95460000
S      -43.40960000     -35.66270000     -69.24170000
S      -45.03290000     -34.87310000     -74.85820000
C      -44.41650000     -34.15040000     -69.23280000
H      -45.28570000     -34.23300000     -69.92060000
H      -44.80800000     -33.98680000     -68.23230000
C      -45.78090000     -33.46480000     -74.04010000
H      -46.79950000     -33.74480000     -73.92330000
H      -45.70740000     -32.63010000     -74.78890000
C      -45.01640000     -33.10930000     -72.72410000
H      -45.08810000     -33.99380000     -72.08370000
H      -43.96490000     -33.02040000     -73.03170000
C      -43.47660000     -33.05010000     -69.54770000
H      -42.94190000     -33.27260000     -70.48910000
H      -42.76640000     -32.89480000     -68.70800000
C      -44.12170000     -31.68480000     -69.68380000
C      -44.07110000     -30.76500000     -68.63350000
C      -44.96710000     -31.26650000     -70.78230000
H      -43.52710000     -30.96750000     -67.69430000
C      -45.46050000     -30.00770000     -70.55070000
C      -45.36050000     -31.77570000     -72.07460000
C      -46.09220000     -30.82370000     -72.80010000
S      -44.92150000     -29.29400000     -69.04500000
S      -46.17770000     -29.30240000     -71.99820000
H      -46.62030000     -31.09030000     -73.74520000
