40
Properties=species:S:1:pos:R:3 #=T CELL(abcABC):=T 1.889726e+02=T 90.00000=T Traj:=T positionsangstrom=T Step:=T 0=T Bead:=T pbc="F F F"
C      -43.03520000     -36.84100000     -70.27810000
C      -44.12130000     -36.64780000     -71.16710000
C      -45.41230000     -36.36360000     -70.66240000
C      -45.52400000     -36.03570000     -69.33340000
C      -44.44100000     -36.06420000     -68.47240000
C      -43.17060000     -36.57920000     -68.89610000
H      -41.99680000     -37.08850000     -70.55380000
H      -46.25620000     -36.12420000     -71.36760000
H      -44.52020000     -35.63740000     -67.43000000
H      -42.30900000     -36.62880000     -68.24200000
C      -46.92130000     -35.83680000     -68.89200000
H      -47.29810000     -36.67640000     -68.30030000
H      -47.56940000     -35.71390000     -69.70590000
C      -43.84770000     -36.91420000     -72.67630000
H      -43.29510000     -37.84100000     -72.73420000
H      -44.64180000     -37.06570000     -73.33890000
S      -47.05180000     -34.27500000     -67.91200000
S      -42.77290000     -35.63180000     -73.40030000
C      -46.40130000     -33.00330000     -68.99580000
H      -46.48740000     -32.07130000     -68.39840000
H      -45.34110000     -33.21640000     -69.28240000
C      -44.04570000     -34.34660000     -73.80710000
H      -44.82670000     -34.70960000     -74.49400000
H      -43.47200000     -33.63860000     -74.46620000
C      -44.61980000     -33.63110000     -72.60820000
H      -45.54490000     -34.06360000     -72.27700000
H      -43.86240000     -33.64330000     -71.83530000
C      -47.16570000     -32.90500000     -70.41520000
H      -48.26940000     -33.08640000     -70.24070000
H      -46.94350000     -33.70780000     -71.08390000
C      -46.88250000     -31.61700000     -71.09860000
C      -47.56550000     -30.46950000     -70.77960000
C      -45.99510000     -31.40220000     -72.20760000
H      -48.41840000     -30.43970000     -70.13220000
C      -46.04220000     -30.07520000     -72.61540000
C      -44.89980000     -32.15170000     -72.88760000
C      -44.30910000     -31.32540000     -73.79910000
S      -47.10450000     -29.09260000     -71.69680000
S      -44.75680000     -29.58740000     -73.76590000
H      -43.37360000     -31.55100000     -74.42040000
