40
Properties=species:S:1:pos:R:3 #=T CELL(abcABC):=T 1.889726e+02=T 90.00000=T Traj:=T positionsangstrom=T Step:=T 0=T Bead:=T pbc="F F F"
C      -44.50350000     -31.96030000     -68.09920000
C      -45.28880000     -32.71340000     -68.98720000
C      -46.06050000     -32.01630000     -69.95870000
C      -46.08370000     -30.56720000     -69.92330000
C      -45.29860000     -29.81010000     -69.05680000
C      -44.46810000     -30.58890000     -68.18540000
H      -43.79310000     -32.39210000     -67.37450000
H      -46.76780000     -32.53780000     -70.62970000
H      -45.34530000     -28.66470000     -69.07870000
H      -43.73540000     -30.00040000     -67.56420000
C      -47.08590000     -29.91340000     -70.88090000
H      -46.69680000     -28.88250000     -70.95920000
H      -48.04380000     -29.86940000     -70.40770000
C      -45.25270000     -34.18530000     -68.81920000
H      -45.86110000     -34.44810000     -67.95780000
H      -45.77520000     -34.55630000     -69.64970000
S      -47.42940000     -30.67290000     -72.56590000
S      -43.58950000     -34.89010000     -68.43270000
C      -45.73420000     -30.67970000     -73.34540000
H      -45.82190000     -30.45370000     -74.45270000
H      -45.19330000     -29.88370000     -72.99970000
C      -42.48400000     -34.24740000     -69.71240000
H      -41.55130000     -34.84480000     -69.73270000
H      -42.07050000     -33.32160000     -69.25480000
C      -43.15080000     -33.89500000     -71.07080000
H      -43.91610000     -33.05470000     -70.83170000
H      -42.49990000     -33.48450000     -71.84700000
C      -44.82430000     -31.88620000     -73.19440000
H      -44.11290000     -31.81080000     -72.31780000
H      -44.03220000     -31.79810000     -74.00680000
C      -45.41850000     -33.32670000     -73.32490000
C      -46.46910000     -33.58610000     -74.18140000
C      -44.98280000     -34.59140000     -72.74550000
H      -46.89880000     -32.88980000     -74.94390000
C      -45.76930000     -35.70940000     -73.13030000
C      -43.96160000     -34.94810000     -71.79070000
C      -43.92680000     -36.29040000     -71.49780000
S      -47.02510000     -35.26430000     -74.26530000
S      -45.28260000     -37.09490000     -72.25830000
H      -43.45560000     -36.76360000     -70.62960000
