40
Properties=species:S:1:pos:R:3 #=T CELL(abcABC):=T 1.889726e+02=T 90.00000=T Traj:=T positionsangstrom=T Step:=T 0=T Bead:=T pbc="F F F"
C      -49.00180000     -33.24020000     -73.97450000
C      -48.76530000     -32.77800000     -72.64010000
C      -47.71530000     -31.84890000     -72.43760000
C      -47.00710000     -31.26490000     -73.49950000
C      -47.23660000     -31.74210000     -74.73660000
C      -48.25650000     -32.64480000     -75.03600000
H      -49.67240000     -34.01720000     -74.19800000
H      -47.38220000     -31.55850000     -71.41200000
H      -46.63920000     -31.36420000     -75.54610000
H      -48.31790000     -33.12740000     -76.09140000
C      -45.83120000     -30.35710000     -73.17340000
H      -46.12100000     -29.44080000     -72.72330000
H      -45.32430000     -30.01560000     -74.13480000
C      -49.55820000     -33.48760000     -71.55100000
H      -49.54320000     -32.98940000     -70.58000000
H      -50.55230000     -33.92720000     -71.73650000
S      -44.55450000     -31.20120000     -72.07180000
S      -48.70250000     -35.19210000     -71.13680000
C      -43.63080000     -32.18210000     -73.33400000
H      -44.16480000     -32.18320000     -74.26010000
H      -42.62340000     -31.77860000     -73.43610000
C      -47.27900000     -34.68650000     -70.11430000
H      -47.22320000     -35.42680000     -69.38940000
H      -47.54690000     -33.80060000     -69.50720000
C      -46.01480000     -34.50050000     -70.81770000
H      -45.89670000     -35.24840000     -71.57460000
H      -45.96050000     -33.55940000     -71.34500000
C      -43.53160000     -33.54580000     -72.71750000
H      -43.05570000     -34.16610000     -73.45660000
H      -44.52660000     -33.96720000     -72.63750000
C      -42.78720000     -33.57870000     -71.41020000
C      -41.46380000     -33.39680000     -71.17210000
C      -43.47240000     -34.10470000     -70.23350000
H      -40.70510000     -32.96360000     -71.82320000
C      -42.65090000     -34.15790000     -69.13370000
C      -44.81600000     -34.61230000     -69.91190000
C      -44.87220000     -35.09440000     -68.66190000
S      -40.98910000     -33.67340000     -69.46080000
S      -43.36450000     -35.00710000     -67.75530000
H      -45.73140000     -35.57130000     -68.16420000
