40
Properties=species:S:1:pos:R:3 #=T CELL(abcABC):=T 1.889726e+02=T 90.00000=T Traj:=T positionsangstrom=T Step:=T 0=T Bead:=T pbc="F F F"
C      -48.62210000     -35.26260000     -72.51890000
C      -47.88500000     -34.27090000     -73.21330000
C      -46.56660000     -34.59570000     -73.70100000
C      -46.12240000     -35.93480000     -73.64820000
C      -46.81520000     -36.91240000     -72.94370000
C      -48.04000000     -36.49480000     -72.34220000
H      -49.56830000     -34.98290000     -72.05900000
H      -46.01140000     -33.81900000     -74.23650000
H      -46.35120000     -37.91090000     -72.86690000
H      -48.50370000     -37.23880000     -71.76220000
C      -44.86780000     -36.30380000     -74.34550000
H      -45.14720000     -36.46310000     -75.39550000
H      -44.40540000     -37.22370000     -73.99920000
C      -48.49070000     -32.88730000     -73.32460000
H      -47.88040000     -32.26460000     -74.01770000
H      -49.43700000     -33.06280000     -73.83940000
S      -43.55870000     -34.85500000     -74.49620000
S      -48.85240000     -32.04180000     -71.77400000
C      -43.10310000     -34.50190000     -72.68040000
H      -43.77900000     -35.22900000     -72.17260000
H      -41.99920000     -34.67760000     -72.47580000
C      -47.22410000     -31.66790000     -71.21170000
H      -47.32520000     -30.76170000     -70.55060000
H      -46.53890000     -31.30880000     -71.95740000
C      -46.60640000     -32.82340000     -70.43750000
H      -47.38180000     -33.28900000     -69.85210000
H      -46.17880000     -33.55120000     -71.09710000
C      -43.59140000     -33.07430000     -72.19400000
H      -44.67230000     -33.12510000     -72.16150000
H      -43.32480000     -32.45350000     -73.04460000
C      -43.19680000     -32.53340000     -70.83880000
C      -41.89060000     -32.28280000     -70.48420000
C      -44.10860000     -32.41570000     -69.72280000
H      -41.02110000     -32.21600000     -71.16100000
C      -43.42180000     -31.93670000     -68.59230000
C      -45.51520000     -32.48810000     -69.42800000
C      -45.80150000     -32.23090000     -68.12960000
S      -41.73960000     -31.58140000     -68.86310000
S      -44.36510000     -31.79830000     -67.14420000
H      -46.75010000     -32.37420000     -67.60940000
