40
Properties=species:S:1:pos:R:3 #=T CELL(abcABC):=T 1.889726e+02=T 90.00000=T Traj:=T positionsangstrom=T Step:=T 0=T Bead:=T pbc="F F F"
C      -48.71560000     -35.59350000     -72.60770000
C      -48.00580000     -34.54190000     -73.23150000
C      -46.67240000     -34.65550000     -73.57600000
C      -45.98590000     -35.84290000     -73.23150000
C      -46.65910000     -36.93390000     -72.67830000
C      -47.99040000     -36.78890000     -72.46980000
H      -49.78410000     -35.69540000     -72.39480000
H      -46.15880000     -33.80770000     -74.02370000
H      -46.16820000     -37.87730000     -72.62460000
H      -48.64820000     -37.62040000     -72.12150000
C      -44.65320000     -36.16950000     -73.82380000
H      -44.83910000     -36.73000000     -74.76070000
H      -44.16940000     -36.85110000     -73.08230000
C      -48.66140000     -33.24790000     -73.56160000
H      -48.08590000     -32.62300000     -74.24940000
H      -49.74220000     -33.36820000     -73.84110000
S      -43.51230000     -34.79670000     -74.42740000
S      -49.00330000     -32.20580000     -71.92310000
C      -42.93170000     -34.18610000     -72.83180000
H      -43.06870000     -34.92640000     -72.00840000
H      -41.85690000     -33.98400000     -72.89170000
C      -47.35570000     -31.92850000     -71.12580000
H      -47.49680000     -31.08520000     -70.54040000
H      -46.73610000     -31.75080000     -71.99150000
C      -46.65480000     -33.07280000     -70.24430000
H      -47.40720000     -33.54130000     -69.54250000
H      -46.43980000     -33.95070000     -70.88120000
C      -43.62330000     -32.94860000     -72.33260000
H      -44.69440000     -33.07790000     -72.48970000
H      -43.34930000     -32.11860000     -72.99560000
C      -43.20630000     -32.57170000     -70.85310000
C      -41.84450000     -32.39510000     -70.52720000
C      -44.05350000     -32.27160000     -69.73960000
H      -40.92590000     -32.61910000     -71.10430000
C      -43.42020000     -31.72170000     -68.65310000
C      -45.44870000     -32.48190000     -69.38070000
C      -45.81130000     -31.85200000     -68.23480000
S      -41.61130000     -31.80610000     -68.85960000
S      -44.44980000     -31.20590000     -67.33240000
H      -46.86250000     -31.67070000     -68.06910000
