40
Properties=species:S:1:pos:R:3 #=T CELL(abcABC):=T 1.889726e+02=T 90.00000=T Traj:=T positionsangstrom=T Step:=T 0=T Bead:=T pbc="F F F"
C      -43.94270000     -31.74070000     -68.07560000
C      -44.79750000     -32.57140000     -68.73780000
C      -45.74900000     -32.06570000     -69.66250000
C      -45.82900000     -30.67200000     -69.82730000
C      -44.94790000     -29.79080000     -69.12460000
C      -44.00240000     -30.38270000     -68.30310000
H      -43.33140000     -32.10720000     -67.27320000
H      -46.49060000     -32.76550000     -70.02210000
H      -45.02350000     -28.73340000     -69.35040000
H      -43.39080000     -29.76180000     -67.60900000
C      -46.90590000     -30.00970000     -70.66830000
H      -46.57550000     -28.98770000     -70.98080000
H      -47.73440000     -29.78290000     -70.04480000
C      -44.88620000     -34.07410000     -68.47180000
H      -45.29510000     -34.27190000     -67.44010000
H      -45.59320000     -34.49050000     -69.21980000
S      -47.57840000     -31.00250000     -72.05050000
S      -43.18570000     -34.94280000     -68.52770000
C      -46.26700000     -30.74270000     -73.31500000
H      -46.75890000     -30.60710000     -74.28420000
H      -45.82700000     -29.71960000     -73.12170000
C      -42.43480000     -34.25500000     -70.18960000
H      -41.90010000     -35.12460000     -70.53140000
H      -41.70510000     -33.50590000     -69.83610000
C      -43.34160000     -33.78260000     -71.25920000
H      -43.99630000     -32.95370000     -70.91640000
H      -42.58660000     -33.39190000     -72.08010000
C      -45.21750000     -31.88790000     -73.12190000
H      -44.75890000     -31.79780000     -72.11700000
H      -44.47060000     -31.81730000     -73.87530000
C      -45.90630000     -33.25920000     -73.33010000
C      -47.04620000     -33.53820000     -74.03130000
C      -45.28730000     -34.48670000     -72.79340000
H      -47.65170000     -32.92690000     -74.66510000
C      -45.89550000     -35.59270000     -73.27030000
C      -44.26420000     -34.83070000     -71.85530000
C      -44.10890000     -36.21870000     -71.77240000
S      -47.29460000     -35.26230000     -74.19970000
S      -45.21850000     -37.09900000     -72.77750000
H      -43.26010000     -36.76240000     -71.34530000
