40
Properties=species:S:1:pos:R:3 #=T CELL(abcABC):=T 1.889726e+02=T 90.00000=T Traj:=T positionsangstrom=T Step:=T 0=T Bead:=T pbc="F F F"
C      -43.98320000     -31.72080000     -67.97490000
C      -44.98080000     -32.55530000     -68.45920000
C      -45.98240000     -32.03340000     -69.32870000
C      -45.93660000     -30.76980000     -69.86050000
C      -44.89600000     -29.90770000     -69.37300000
C      -44.02990000     -30.37020000     -68.33680000
H      -43.15530000     -32.06750000     -67.35830000
H      -46.82540000     -32.66990000     -69.65090000
H      -44.76760000     -28.84010000     -69.67950000
H      -43.26620000     -29.63710000     -67.91870000
C      -47.04000000     -30.18550000     -70.65940000
H      -46.83610000     -29.14730000     -70.92620000
H      -47.96290000     -30.19220000     -70.00790000
C      -44.86020000     -33.99790000     -68.21350000
H      -45.04570000     -34.15300000     -67.08290000
H      -45.52920000     -34.60640000     -68.68680000
S      -47.65160000     -30.83240000     -72.26400000
S      -43.13390000     -34.75210000     -68.48730000
C      -46.13470000     -30.76240000     -73.25640000
H      -46.44170000     -30.66980000     -74.29860000
H      -45.54650000     -29.90880000     -72.94490000
C      -42.42160000     -34.21250000     -70.11090000
H      -41.74970000     -35.04810000     -70.45010000
H      -41.83980000     -33.27190000     -69.98830000
C      -43.36410000     -33.88210000     -71.23030000
H      -44.16380000     -33.34090000     -70.76280000
H      -42.93500000     -33.23620000     -71.95350000
C      -45.16020000     -31.96990000     -73.05640000
H      -44.80950000     -31.75210000     -72.02660000
H      -44.22690000     -31.93640000     -73.73610000
C      -45.71560000     -33.33680000     -73.34270000
C      -46.87920000     -33.48800000     -74.05540000
C      -45.22660000     -34.59010000     -72.78320000
H      -47.52460000     -32.79690000     -74.55420000
C      -45.91430000     -35.63840000     -73.32650000
C      -44.12620000     -34.98520000     -71.96210000
C      -43.95960000     -36.37640000     -71.91870000
S      -47.32140000     -35.18210000     -74.24410000
S      -45.27260000     -37.19180000     -72.81050000
H      -43.07450000     -36.81130000     -71.40030000
