40
Properties=species:S:1:pos:R:3 #=T CELL(abcABC):=T 1.889726e+02=T 90.00000=T Traj:=T positionsangstrom=T Step:=T 0=T Bead:=T pbc="F F F"
C      -43.80950000     -31.58850000     -68.49870000
C      -44.85770000     -32.45760000     -68.84960000
C      -45.96800000     -32.02940000     -69.60000000
C      -46.15040000     -30.63920000     -69.83600000
C      -45.12210000     -29.79650000     -69.49190000
C      -43.96500000     -30.21620000     -68.88380000
H      -42.99230000     -31.93730000     -67.89440000
H      -46.85960000     -32.70400000     -69.84540000
H      -45.25640000     -28.72770000     -69.68460000
H      -43.19200000     -29.56350000     -68.64400000
C      -47.35380000     -30.10610000     -70.59390000
H      -47.30030000     -28.99900000     -70.80650000
H      -48.22830000     -30.28070000     -69.95600000
C      -44.93000000     -33.93460000     -68.46690000
H      -45.40060000     -34.00140000     -67.54460000
H      -45.54910000     -34.39420000     -69.37180000
S      -47.75380000     -30.93100000     -72.21380000
S      -43.32580000     -34.99080000     -68.35270000
C      -46.08410000     -30.59610000     -73.03400000
H      -46.10390000     -30.32030000     -74.10720000
H      -45.61980000     -29.70840000     -72.59510000
C      -42.40030000     -34.55620000     -69.84920000
H      -41.79150000     -35.41640000     -70.23650000
H      -41.58860000     -33.79910000     -69.62430000
C      -43.26550000     -34.01410000     -70.93110000
H      -43.71640000     -33.11250000     -70.63080000
H      -42.62890000     -33.74660000     -71.77730000
C      -45.10520000     -31.83840000     -72.95740000
H      -44.68370000     -31.85990000     -71.95080000
H      -44.26320000     -31.74880000     -73.63170000
C      -45.66880000     -33.25000000     -73.20550000
C      -46.54810000     -33.48690000     -74.24960000
C      -45.16200000     -34.51610000     -72.67120000
H      -47.08190000     -32.73630000     -74.83700000
C      -45.81990000     -35.59920000     -73.27040000
C      -44.25740000     -34.94610000     -71.62960000
C      -44.17500000     -36.33550000     -71.54790000
S      -46.99730000     -35.18720000     -74.45320000
S      -45.28570000     -37.18040000     -72.64920000
H      -43.60830000     -36.93460000     -70.85940000
