40
Properties=species:S:1:pos:R:3 #=T CELL(abcABC):=T 1.889726e+02=T 90.00000=T Traj:=T positionsangstrom=T Step:=T 0=T Bead:=T pbc="F F F"
C      -43.45470000     -32.73990000     -68.20830000
C      -44.55640000     -33.23960000     -68.92660000
C      -45.59020000     -32.38260000     -69.33630000
C      -45.50970000     -30.98420000     -68.97960000
C      -44.32700000     -30.52320000     -68.29860000
C      -43.30520000     -31.39420000     -67.89220000
H      -42.59740000     -33.40850000     -67.96510000
H      -46.45850000     -32.90180000     -69.75940000
H      -44.30100000     -29.46820000     -67.99870000
H      -42.41500000     -30.98460000     -67.40730000
C      -46.51180000     -29.96960000     -69.47980000
H      -46.11670000     -28.96250000     -69.56110000
H      -47.37030000     -29.96390000     -68.82340000
C      -44.71980000     -34.65200000     -69.27150000
H      -45.52760000     -35.18070000     -68.73150000
H      -45.02430000     -34.75720000     -70.33150000
S      -47.38120000     -30.35090000     -71.06100000
S      -43.23930000     -35.71220000     -69.32140000
C      -45.93770000     -30.29640000     -72.21400000
H      -46.30030000     -29.70950000     -73.14990000
H      -45.26750000     -29.58030000     -71.67970000
C      -42.28360000     -35.20260000     -70.86600000
H      -41.91910000     -36.09140000     -71.36510000
H      -41.39450000     -34.66240000     -70.40670000
C      -43.04510000     -34.24900000     -71.79520000
H      -43.24290000     -33.27620000     -71.39950000
H      -42.45370000     -34.05920000     -72.70000000
C      -45.22540000     -31.64290000     -72.43120000
H      -44.87840000     -31.98360000     -71.45280000
H      -44.28130000     -31.43490000     -73.00810000
C      -46.09740000     -32.77730000     -72.95880000
C      -47.30110000     -32.72530000     -73.64760000
C      -45.51010000     -34.11860000     -72.95790000
H      -47.88760000     -31.79670000     -73.68640000
C      -46.44180000     -35.02330000     -73.56110000
C      -44.29340000     -34.82010000     -72.51870000
C      -44.31710000     -36.19560000     -72.85560000
S      -47.91500000     -34.28320000     -74.18520000
S      -45.80940000     -36.64920000     -73.68080000
H      -43.56860000     -36.83000000     -72.42870000
