40
Properties=species:S:1:pos:R:3 #=T CELL(abcABC):=T 1.889726e+02=T 90.00000=T Traj:=T positionsangstrom=T Step:=T 0=T Bead:=T pbc="F F F"
C      -47.45850000     -36.16780000     -71.48750000
C      -46.12460000     -36.50730000     -71.81500000
C      -45.18590000     -36.37280000     -70.83380000
C      -45.52900000     -36.16180000     -69.44290000
C      -46.92680000     -36.06450000     -69.11290000
C      -47.85570000     -35.98950000     -70.13510000
H      -48.21600000     -36.27650000     -72.28290000
H      -44.15220000     -36.56300000     -71.02610000
H      -47.18920000     -36.03540000     -68.09690000
H      -48.86420000     -35.87290000     -69.93760000
C      -44.41050000     -36.12740000     -68.46320000
H      -43.88550000     -37.10010000     -68.46020000
H      -44.74780000     -35.93810000     -67.39630000
C      -45.74070000     -36.89540000     -73.23720000
H      -45.32030000     -37.98080000     -73.22480000
H      -46.59050000     -36.86920000     -73.98730000
S      -43.12330000     -34.85130000     -68.86660000
S      -44.30050000     -35.93970000     -73.98000000
C      -44.14640000     -33.39760000     -69.13940000
H      -44.99920000     -33.63210000     -69.75740000
H      -44.57860000     -33.09290000     -68.18610000
C      -44.91010000     -34.17690000     -73.97330000
H      -45.84310000     -34.16410000     -74.61130000
H      -44.09220000     -33.55730000     -74.39340000
C      -45.27090000     -33.64010000     -72.56940000
H      -45.98590000     -34.22800000     -72.04150000
H      -44.40430000     -33.74350000     -71.91030000
C      -43.45680000     -32.27760000     -69.85690000
H      -42.97480000     -32.77690000     -70.73500000
H      -42.63870000     -31.82130000     -69.29740000
C      -44.42770000     -31.14680000     -70.37380000
C      -44.42390000     -29.88040000     -69.87220000
C      -45.17340000     -31.18900000     -71.62000000
H      -43.89060000     -29.50580000     -69.02690000
C      -45.83610000     -29.95070000     -71.87230000
C      -45.69950000     -32.19150000     -72.55350000
C      -46.60080000     -31.70670000     -73.45350000
S      -45.49810000     -28.73890000     -70.62420000
S      -46.94060000     -29.98860000     -73.21460000
H      -47.14260000     -32.28990000     -74.15690000
