40
Properties=species:S:1:pos:R:3 #=T CELL(abcABC):=T 1.889726e+02=T 90.00000=T Traj:=T positionsangstrom=T Step:=T 0=T Bead:=T pbc="F F F"
C      -43.38490000     -32.89850000     -68.31030000
C      -44.52310000     -33.31940000     -68.95030000
C      -45.51880000     -32.39720000     -69.39460000
C      -45.37090000     -31.09070000     -68.99840000
C      -44.24800000     -30.65520000     -68.30780000
C      -43.18240000     -31.52060000     -68.07630000
H      -42.54520000     -33.55400000     -68.10480000
H      -46.37580000     -32.65920000     -69.96110000
H      -44.13130000     -29.61720000     -68.15150000
H      -42.29290000     -31.19370000     -67.59910000
C      -46.44960000     -30.07450000     -69.23290000
H      -46.00600000     -29.07080000     -69.21310000
H      -47.12600000     -30.16490000     -68.35570000
C      -44.74850000     -34.87390000     -69.29130000
H      -45.20730000     -35.27180000     -68.40190000
H      -45.49630000     -34.90780000     -70.09860000
S      -47.23080000     -30.21990000     -70.92480000
S      -43.19950000     -35.85120000     -69.59970000
C      -45.94910000     -30.24670000     -72.23790000
H      -46.47960000     -30.06310000     -73.17920000
H      -45.22060000     -29.46740000     -72.12600000
C      -42.34500000     -34.97120000     -71.08180000
H      -41.81430000     -35.64230000     -71.78840000
H      -41.45000000     -34.49350000     -70.62180000
C      -43.29840000     -34.07240000     -71.89870000
H      -43.64340000     -33.22900000     -71.21170000
H      -42.68380000     -33.63900000     -72.66940000
C      -45.22210000     -31.54600000     -72.44190000
H      -44.51460000     -31.66490000     -71.60320000
H      -44.49120000     -31.36710000     -73.24310000
C      -46.01460000     -32.79560000     -72.89340000
C      -47.25420000     -32.63870000     -73.39460000
C      -45.56440000     -34.16700000     -72.94710000
H      -47.82310000     -31.67560000     -73.44460000
C      -46.48850000     -34.97920000     -73.57920000
C      -44.40270000     -34.85520000     -72.53270000
C      -44.48800000     -36.24150000     -72.74450000
S      -47.93330000     -34.10380000     -74.08150000
S      -45.97130000     -36.67840000     -73.58220000
H      -43.71760000     -37.04210000     -72.63340000
