40
Properties=species:S:1:pos:R:3 #=T CELL(abcABC):=T 1.889726e+02=T 90.00000=T Traj:=T positionsangstrom=T Step:=T 0=T Bead:=T pbc="F F F"
C      -47.40970000     -36.66690000     -71.34870000
C      -46.08540000     -36.72550000     -71.75040000
C      -45.14950000     -36.42210000     -70.74070000
C      -45.54360000     -36.09710000     -69.46290000
C      -46.90190000     -35.94710000     -69.10890000
C      -47.82090000     -36.19660000     -70.12870000
H      -48.13950000     -36.75900000     -72.10680000
H      -44.11170000     -36.30740000     -71.01570000
H      -47.15040000     -35.67360000     -68.07880000
H      -48.87400000     -36.11780000     -69.92170000
C      -44.57330000     -35.87430000     -68.30750000
H      -44.04140000     -36.78510000     -68.08550000
H      -45.01220000     -35.61760000     -67.37030000
C      -45.67240000     -36.96310000     -73.25580000
H      -45.59480000     -37.99410000     -73.54740000
H      -46.50030000     -36.67060000     -73.87090000
S      -43.22570000     -34.65900000     -68.80690000
S      -44.20680000     -35.91560000     -73.78720000
C      -44.16350000     -33.09570000     -69.01820000
H      -45.18160000     -33.23180000     -69.35000000
H      -44.19180000     -32.58130000     -68.00230000
C      -44.92720000     -34.25460000     -73.98620000
H      -45.81400000     -34.27700000     -74.61570000
H      -44.23140000     -33.64030000     -74.53950000
C      -45.15810000     -33.64770000     -72.63600000
H      -45.92490000     -34.31010000     -72.12030000
H      -44.23080000     -33.75900000     -72.06360000
C      -43.47280000     -32.26370000     -70.07040000
H      -43.14460000     -32.93070000     -70.88670000
H      -42.63070000     -31.74460000     -69.66590000
C      -44.44100000     -31.18170000     -70.53710000
C      -44.33740000     -29.95880000     -69.95170000
C      -45.35620000     -31.25510000     -71.65050000
H      -43.85320000     -29.78880000     -69.02150000
C      -45.98710000     -30.02250000     -71.81320000
C      -45.68410000     -32.21820000     -72.68290000
C      -46.42170000     -31.64450000     -73.66560000
S      -45.50840000     -28.74800000     -70.68770000
S      -46.94690000     -30.00930000     -73.28240000
H      -46.93160000     -32.15080000     -74.50480000
