40
Properties=species:S:1:pos:R:3 #=T CELL(abcABC):=T 1.889726e+02=T 90.00000=T Traj:=T positionsangstrom=T Step:=T 0=T Bead:=T pbc="F F F"
C      -49.09180000     -35.39330000     -69.72840000
C      -48.61020000     -34.08560000     -69.88380000
C      -47.48970000     -33.68680000     -69.13800000
C      -46.68340000     -34.65760000     -68.47460000
C      -47.06370000     -35.96290000     -68.52260000
C      -48.32430000     -36.36060000     -69.03120000
H      -49.89430000     -35.56650000     -70.40120000
H      -47.17950000     -32.66050000     -69.11660000
H      -46.48460000     -36.78720000     -68.05580000
H      -48.77460000     -37.36830000     -68.88210000
C      -45.50750000     -34.27120000     -67.67220000
H      -44.74130000     -35.13620000     -67.60360000
H      -45.81490000     -34.16260000     -66.61130000
C      -49.27120000     -33.18160000     -70.90440000
H      -49.49500000     -33.78520000     -71.85970000
H      -50.27190000     -32.82170000     -70.57460000
S      -44.61770000     -32.76180000     -68.02670000
S      -48.46500000     -31.51600000     -71.47180000
C      -43.68840000     -33.29840000     -69.53800000
H      -42.87090000     -33.96190000     -69.22270000
H      -44.40350000     -33.81520000     -70.21830000
C      -47.16870000     -32.15340000     -72.73900000
H      -46.85500000     -31.24200000     -73.21400000
H      -47.71810000     -32.70920000     -73.48660000
C      -46.04760000     -32.92380000     -72.04590000
H      -45.74580000     -32.56640000     -71.08410000
H      -46.61190000     -33.87400000     -71.74420000
C      -43.14880000     -32.14400000     -70.37010000
H      -42.32570000     -31.64670000     -69.89370000
H      -43.99720000     -31.41600000     -70.40260000
C      -42.74750000     -32.51940000     -71.75840000
C      -41.42190000     -32.45370000     -72.10570000
C      -43.55130000     -33.00060000     -72.85200000
H      -40.59590000     -32.09030000     -71.51020000
C      -42.82100000     -33.42660000     -73.95510000
C      -44.94340000     -33.27670000     -72.97770000
C      -45.23610000     -33.76540000     -74.23890000
S      -41.11920000     -32.97700000     -73.73280000
S      -43.84290000     -33.99490000     -75.21970000
H      -46.19080000     -33.87880000     -74.66460000
