40
Properties=species:S:1:pos:R:3 #=T CELL(abcABC):=T 1.889726e+02=T 90.00000=T Traj:=T positionsangstrom=T Step:=T 0=T Bead:=T pbc="F F F"
C      -47.00250000     -36.85860000     -71.28040000
C      -45.64400000     -37.08230000     -71.25730000
C      -44.90000000     -36.58840000     -70.11630000
C      -45.45010000     -35.89720000     -69.01400000
C      -46.82260000     -35.83240000     -69.04690000
C      -47.58900000     -36.30250000     -70.11890000
H      -47.63880000     -37.04680000     -72.16500000
H      -43.83080000     -36.90610000     -70.04570000
H      -47.28700000     -35.36820000     -68.14410000
H      -48.68560000     -36.13260000     -70.07330000
C      -44.58870000     -35.48290000     -67.84350000
H      -44.06290000     -36.31560000     -67.41690000
H      -45.08620000     -35.12680000     -66.92200000
C      -44.84770000     -37.54420000     -72.47770000
H      -44.04150000     -38.14910000     -72.09680000
H      -45.50770000     -38.14730000     -73.16230000
S      -43.28290000     -34.19950000     -68.44420000
S      -44.13250000     -36.17770000     -73.41910000
C      -44.40720000     -32.87640000     -69.20280000
H      -45.17020000     -33.38440000     -69.81190000
H      -45.01670000     -32.35560000     -68.47500000
C      -45.34630000     -34.81100000     -73.50600000
H      -46.28620000     -35.07180000     -73.04290000
H      -45.45720000     -34.49840000     -74.52470000
C      -44.78270000     -33.54060000     -72.68840000
H      -44.70590000     -33.83680000     -71.58110000
H      -43.73730000     -33.39230000     -72.85710000
C      -43.68910000     -31.88790000     -70.10080000
H      -43.23040000     -32.49680000     -70.89660000
H      -42.87950000     -31.47070000     -69.50670000
C      -44.63540000     -30.83840000     -70.75160000
C      -44.87650000     -29.57440000     -70.27480000
C      -45.44800000     -31.14810000     -71.92550000
H      -44.46670000     -29.07210000     -69.42740000
C      -46.09660000     -30.03580000     -72.39580000
C      -45.52320000     -32.19020000     -72.90510000
C      -46.29490000     -31.90320000     -73.98760000
S      -46.00210000     -28.65250000     -71.36470000
S      -46.96600000     -30.28910000     -73.91100000
H      -46.53990000     -32.47570000     -74.89320000
