40
Properties=species:S:1:pos:R:3 #=T CELL(abcABC):=T 1.889726e+02=T 90.00000=T Traj:=T positionsangstrom=T Step:=T 0=T Bead:=T pbc="F F F"
C      -47.15940000     -36.97910000     -71.27180000
C      -45.76930000     -37.04070000     -71.46430000
C      -44.98220000     -36.56560000     -70.39240000
C      -45.49140000     -36.15050000     -69.16680000
C      -46.88220000     -36.10080000     -69.01360000
C      -47.65750000     -36.52960000     -70.08780000
H      -47.83210000     -37.17590000     -72.10670000
H      -43.92480000     -36.59100000     -70.51550000
H      -47.35160000     -35.73520000     -68.14280000
H      -48.68410000     -36.51020000     -69.97370000
C      -44.52670000     -35.71030000     -68.06490000
H      -43.89580000     -36.56460000     -67.83970000
H      -45.11540000     -35.42080000     -67.24110000
C      -45.00590000     -37.47400000     -72.71160000
H      -44.11930000     -38.07550000     -72.33840000
H      -45.69520000     -37.89780000     -73.45390000
S      -43.44040000     -34.28970000     -68.59110000
S      -44.10990000     -36.00860000     -73.67080000
C      -44.56300000     -32.86630000     -69.08870000
H      -45.42200000     -33.32840000     -69.64230000
H      -45.00550000     -32.35760000     -68.23730000
C      -45.29360000     -34.62380000     -73.53060000
H      -46.16390000     -35.08950000     -73.10630000
H      -45.53970000     -34.31900000     -74.59420000
C      -44.71360000     -33.50070000     -72.67010000
H      -44.71930000     -33.88150000     -71.67430000
H      -43.68910000     -33.34890000     -73.05660000
C      -43.72550000     -31.92800000     -69.99810000
H      -43.10110000     -32.62020000     -70.60520000
H      -43.01290000     -31.52960000     -69.26120000
C      -44.57530000     -30.89070000     -70.68260000
C      -44.71660000     -29.55820000     -70.16760000
C      -45.29580000     -31.03540000     -71.90540000
H      -44.28530000     -29.11010000     -69.24340000
C      -46.01040000     -29.90390000     -72.26970000
C      -45.50670000     -32.18810000     -72.75930000
C      -46.36340000     -31.87810000     -73.82690000
S      -45.73710000     -28.57900000     -71.08060000
S      -46.96770000     -30.21540000     -73.71270000
H      -46.65270000     -32.57410000     -74.54750000
