40
Properties=species:S:1:pos:R:3 #=T CELL(abcABC):=T 1.889726e+02=T 90.00000=T Traj:=T positionsangstrom=T Step:=T 0=T Bead:=T pbc="F F F"
C      -47.15020000     -36.77270000     -71.33520000
C      -45.76220000     -36.92920000     -71.54610000
C      -44.90210000     -36.60410000     -70.48230000
C      -45.47390000     -36.16090000     -69.22960000
C      -46.86800000     -36.27490000     -69.05450000
C      -47.69110000     -36.58840000     -70.05530000
H      -47.87000000     -36.97000000     -72.15240000
H      -43.82090000     -36.56400000     -70.70990000
H      -47.29230000     -35.96430000     -68.11730000
H      -48.73750000     -36.63680000     -69.90430000
C      -44.69500000     -35.71760000     -68.04550000
H      -43.98610000     -36.50730000     -67.61350000
H      -45.28830000     -35.44230000     -67.11690000
C      -45.24000000     -37.34060000     -72.92830000
H      -44.62230000     -38.21930000     -72.93170000
H      -46.06040000     -37.57780000     -73.60110000
S      -43.37810000     -34.43200000     -68.49290000
S      -44.24900000     -36.07200000     -73.75270000
C      -44.47410000     -33.02110000     -69.10410000
H      -45.18540000     -33.49760000     -69.79260000
H      -45.05580000     -32.55490000     -68.30930000
C      -45.21040000     -34.47040000     -73.75850000
H      -46.27880000     -34.70660000     -73.68220000
H      -45.00720000     -34.06070000     -74.76990000
C      -44.69420000     -33.46770000     -72.75630000
H      -44.61630000     -33.89070000     -71.68790000
H      -43.65000000     -33.24550000     -73.02700000
C      -43.67890000     -31.90820000     -69.86080000
H      -42.92930000     -32.27750000     -70.55950000
H      -43.08650000     -31.28710000     -69.18920000
C      -44.51970000     -30.88550000     -70.59920000
C      -44.55350000     -29.51990000     -70.15990000
C      -45.30470000     -31.09680000     -71.74910000
H      -44.09630000     -29.11140000     -69.24830000
C      -46.09200000     -29.98720000     -72.06640000
C      -45.46680000     -32.17590000     -72.71070000
C      -46.31090000     -31.75340000     -73.74210000
S      -45.70170000     -28.54860000     -71.20430000
S      -46.97950000     -30.17160000     -73.52230000
H      -46.73410000     -32.40410000     -74.47570000
