40
Properties=species:S:1:pos:R:3 #=T CELL(abcABC):=T 1.889726e+02=T 90.00000=T Traj:=T positionsangstrom=T Step:=T 0=T Bead:=T pbc="F F F"
C      -46.99080000     -36.47900000     -70.81730000
C      -45.60510000     -36.79620000     -70.82440000
C      -44.79680000     -36.42730000     -69.75570000
C      -45.33580000     -35.69480000     -68.66520000
C      -46.68940000     -35.48720000     -68.64570000
C      -47.52420000     -35.83310000     -69.70370000
H      -47.57860000     -36.76170000     -71.68310000
H      -43.70000000     -36.47920000     -69.76520000
H      -47.08620000     -34.97350000     -67.82220000
H      -48.56380000     -35.53690000     -69.66930000
C      -44.40930000     -35.01390000     -67.75130000
H      -43.70960000     -35.81430000     -67.34770000
H      -44.88060000     -34.52870000     -66.86850000
C      -44.98500000     -37.59640000     -71.95840000
H      -44.41480000     -38.44530000     -71.64730000
H      -45.73450000     -37.84940000     -72.69890000
S      -43.24580000     -33.77870000     -68.55820000
S      -43.77990000     -36.49380000     -72.98990000
C      -44.51710000     -32.47520000     -69.07460000
H      -45.34750000     -33.11200000     -69.42080000
H      -44.79720000     -31.92140000     -68.16100000
C      -44.81850000     -35.04040000     -73.53720000
H      -45.80180000     -35.41520000     -73.60560000
H      -44.61700000     -34.81180000     -74.60660000
C      -44.59660000     -33.77880000     -72.62820000
H      -44.89110000     -34.04900000     -71.55430000
H      -43.52710000     -33.59550000     -72.62700000
C      -43.91620000     -31.50110000     -70.07530000
H      -43.20820000     -31.97100000     -70.71350000
H      -43.39650000     -30.71960000     -69.44910000
C      -44.96140000     -30.78850000     -70.94710000
C      -45.20510000     -29.43960000     -70.81460000
C      -45.49260000     -31.33250000     -72.20480000
H      -44.85650000     -28.93930000     -69.88850000
C      -46.30930000     -30.33320000     -72.81790000
C      -45.44310000     -32.52820000     -72.98800000
C      -46.22330000     -32.44320000     -74.11210000
S      -46.41140000     -28.85120000     -71.95400000
S      -47.02860000     -30.81990000     -74.30890000
H      -46.39400000     -33.19110000     -74.87250000
