40
Properties=species:S:1:pos:R:3 #=T CELL(abcABC):=T 1.889726e+02=T 90.00000=T Traj:=T positionsangstrom=T Step:=T 0=T Bead:=T pbc="F F F"
C      -46.68410000     -36.82630000     -70.57010000
C      -45.29610000     -36.80140000     -70.53840000
C      -44.62450000     -36.09600000     -69.49710000
C      -45.34080000     -35.29190000     -68.61920000
C      -46.78550000     -35.36320000     -68.62130000
C      -47.42530000     -36.15870000     -69.59440000
H      -47.17540000     -37.51970000     -71.30030000
H      -43.55830000     -35.96720000     -69.47280000
H      -47.42880000     -34.79570000     -67.94090000
H      -48.45000000     -36.28570000     -69.69500000
C      -44.61590000     -34.39690000     -67.57370000
H      -44.17720000     -34.99020000     -66.75840000
H      -45.30520000     -33.71830000     -66.97790000
C      -44.65470000     -37.64400000     -71.65290000
H      -43.78200000     -38.28670000     -71.26600000
H      -45.43800000     -38.22390000     -72.00680000
S      -43.38140000     -33.28970000     -68.28460000
S      -43.65850000     -36.61110000     -72.90750000
C      -44.53120000     -32.37360000     -69.34870000
H      -45.16570000     -33.13930000     -69.86040000
H      -45.33680000     -31.81820000     -68.70700000
C      -44.90620000     -35.21660000     -73.44850000
H      -45.93940000     -35.52080000     -73.27120000
H      -44.85320000     -35.08480000     -74.54920000
C      -44.65470000     -33.91850000     -72.76870000
H      -44.55240000     -34.10860000     -71.70190000
H      -43.51470000     -33.74610000     -72.96670000
C      -43.80920000     -31.38150000     -70.32900000
H      -43.05940000     -31.96500000     -70.92440000
H      -43.37070000     -30.58850000     -69.70620000
C      -44.85520000     -30.79600000     -71.24210000
C      -45.13500000     -29.41730000     -71.12090000
C      -45.52600000     -31.43900000     -72.34260000
H      -44.68240000     -28.67410000     -70.51480000
C      -46.42240000     -30.51520000     -72.97150000
C      -45.49030000     -32.71820000     -73.06320000
C      -46.51480000     -32.68490000     -74.06550000
S      -46.31830000     -28.88200000     -72.29390000
S      -47.31090000     -31.14530000     -74.31200000
H      -46.76350000     -33.57390000     -74.63520000
