40
Properties=species:S:1:pos:R:3 #=T CELL(abcABC):=T 1.889726e+02=T 90.00000=T Traj:=T positionsangstrom=T Step:=T 0=T Bead:=T pbc="F F F"
C      -46.86850000     -36.77440000     -70.65380000
C      -45.48250000     -36.76140000     -70.68370000
C      -44.66400000     -36.10290000     -69.71640000
C      -45.31090000     -35.46490000     -68.64970000
C      -46.69580000     -35.54670000     -68.55470000
C      -47.47470000     -36.19190000     -69.53650000
H      -47.30950000     -37.24380000     -71.48970000
H      -43.57910000     -36.14160000     -69.69720000
H      -47.25860000     -34.98140000     -67.83220000
H      -48.57610000     -36.23120000     -69.46610000
C      -44.68040000     -34.51100000     -67.61240000
H      -44.06210000     -35.15490000     -66.95880000
H      -45.44760000     -34.02920000     -67.00420000
C      -44.71040000     -37.52380000     -71.83770000
H      -44.10890000     -38.26360000     -71.42560000
H      -45.46700000     -37.99410000     -72.55070000
S      -43.37700000     -33.40370000     -68.25250000
S      -43.66830000     -36.46280000     -72.94200000
C      -44.53870000     -32.34120000     -69.25530000
H      -45.17120000     -33.11290000     -69.81110000
H      -45.11850000     -31.80520000     -68.51440000
C      -44.82740000     -35.06900000     -73.44590000
H      -45.89980000     -35.27780000     -73.29000000
H      -44.71240000     -34.85170000     -74.52600000
C      -44.52330000     -33.79950000     -72.67980000
H      -44.72800000     -34.10840000     -71.62720000
H      -43.47690000     -33.58100000     -72.68270000
C      -43.83250000     -31.45530000     -70.25380000
H      -43.13480000     -32.08560000     -70.69040000
H      -43.23310000     -30.66370000     -69.74180000
C      -44.80800000     -30.73670000     -71.23270000
C      -45.18510000     -29.46590000     -71.01620000
C      -45.44640000     -31.39550000     -72.33870000
H      -44.97650000     -28.72720000     -70.22820000
C      -46.35280000     -30.53390000     -72.93520000
C      -45.39740000     -32.66430000     -73.08170000
C      -46.32300000     -32.66860000     -74.10370000
S      -46.42030000     -28.94210000     -72.19450000
S      -47.25450000     -31.14060000     -74.32190000
H      -46.46090000     -33.46710000     -74.86940000
