40
Properties=species:S:1:pos:R:3 #=T CELL(abcABC):=T 1.889726e+02=T 90.00000=T Traj:=T positionsangstrom=T Step:=T 0=T Bead:=T pbc="F F F"
C      -46.77000000     -36.85400000     -70.40550000
C      -45.39560000     -36.81950000     -70.62520000
C      -44.63660000     -35.97890000     -69.77330000
C      -45.16670000     -35.27020000     -68.70580000
C      -46.55900000     -35.22870000     -68.59160000
C      -47.36450000     -36.04090000     -69.40890000
H      -47.41250000     -37.46270000     -71.07130000
H      -43.51200000     -35.93680000     -69.85700000
H      -47.04430000     -34.57130000     -67.85280000
H      -48.41850000     -36.00800000     -69.33000000
C      -44.28230000     -34.51600000     -67.67620000
H      -43.73740000     -35.30660000     -67.07730000
H      -44.87950000     -34.05740000     -66.85250000
C      -44.85550000     -37.60750000     -71.79530000
H      -44.23480000     -38.34300000     -71.40350000
H      -45.68520000     -38.17360000     -72.18260000
S      -43.15330000     -33.25430000     -68.38770000
S      -43.77020000     -36.54630000     -72.88400000
C      -44.41430000     -32.16790000     -69.13330000
H      -45.25940000     -32.79810000     -69.60910000
H      -44.84620000     -31.41320000     -68.41920000
C      -44.80780000     -35.09140000     -73.50430000
H      -45.75850000     -35.41850000     -73.75900000
H      -44.31710000     -34.70160000     -74.36540000
C      -44.83670000     -33.97430000     -72.48930000
H      -45.33890000     -34.26040000     -71.53070000
H      -43.81790000     -33.71600000     -72.14050000
C      -43.86440000     -31.33930000     -70.28360000
H      -43.22420000     -31.86520000     -71.05880000
H      -43.22660000     -30.62110000     -69.86100000
C      -44.82090000     -30.73390000     -71.30510000
C      -45.05270000     -29.36960000     -71.32790000
C      -45.59100000     -31.47620000     -72.28850000
H      -44.55730000     -28.68290000     -70.70570000
C      -46.54370000     -30.63430000     -72.85850000
C      -45.56660000     -32.75170000     -72.93540000
C      -46.51860000     -32.85520000     -73.99160000
S      -46.41510000     -28.94170000     -72.43360000
S      -47.43380000     -31.34110000     -74.20710000
H      -46.68430000     -33.65840000     -74.74210000
