40
Properties=species:S:1:pos:R:3 #=T CELL(abcABC):=T 1.889726e+02=T 90.00000=T Traj:=T positionsangstrom=T Step:=T 0=T Bead:=T pbc="F F F"
C      -46.75020000     -36.66170000     -70.58240000
C      -45.32990000     -36.81470000     -70.60480000
C      -44.65820000     -36.07490000     -69.62860000
C      -45.27640000     -35.33020000     -68.62950000
C      -46.64950000     -35.30440000     -68.57330000
C      -47.41790000     -35.99680000     -69.55470000
H      -47.43610000     -37.23630000     -71.24780000
H      -43.59030000     -36.01490000     -69.80860000
H      -47.09020000     -34.81540000     -67.65590000
H      -48.46200000     -35.97200000     -69.57500000
C      -44.47530000     -34.57500000     -67.57760000
H      -43.75510000     -35.16180000     -67.03090000
H      -45.04270000     -34.03250000     -66.90380000
C      -44.61820000     -37.56220000     -71.68990000
H      -43.75330000     -38.27940000     -71.35060000
H      -45.38400000     -38.09350000     -72.26340000
S      -43.34060000     -33.31110000     -68.43560000
S      -43.72280000     -36.48050000     -72.89530000
C      -44.44730000     -32.15580000     -69.34540000
H      -45.30730000     -32.65910000     -69.62620000
H      -44.82000000     -31.38040000     -68.68250000
C      -45.02800000     -35.24730000     -73.10030000
H      -45.96640000     -35.65550000     -72.63290000
H      -45.24730000     -35.20990000     -74.22050000
C      -44.67360000     -33.89580000     -72.56260000
H      -44.63680000     -33.92820000     -71.51180000
H      -43.69270000     -33.67520000     -72.92140000
C      -43.77890000     -31.38690000     -70.44690000
H      -43.26580000     -32.12840000     -71.08610000
H      -43.05370000     -30.72350000     -70.02000000
C      -44.77570000     -30.75660000     -71.27330000
C      -45.22350000     -29.49950000     -71.09050000
C      -45.50390000     -31.35040000     -72.48340000
H      -44.92100000     -28.82590000     -70.34990000
C      -46.33430000     -30.45250000     -73.12150000
C      -45.59230000     -32.75580000     -72.92240000
C      -46.62240000     -32.89590000     -73.83370000
S      -46.35330000     -28.91760000     -72.31820000
S      -47.30850000     -31.35510000     -74.30700000
H      -46.73820000     -33.73190000     -74.47830000
