40
Properties=species:S:1:pos:R:3 #=T CELL(abcABC):=T 1.889726e+02=T 90.00000=T Traj:=T positionsangstrom=T Step:=T 0=T Bead:=T pbc="F F F"
C      -46.90590000     -36.85980000     -70.58650000
C      -45.52580000     -36.87170000     -70.77070000
C      -44.74100000     -36.19090000     -69.79260000
C      -45.32830000     -35.42340000     -68.78190000
C      -46.74520000     -35.42710000     -68.58460000
C      -47.50920000     -36.15080000     -69.53650000
H      -47.63310000     -37.39230000     -71.27820000
H      -43.69570000     -36.11240000     -70.08420000
H      -47.20120000     -34.87940000     -67.69900000
H      -48.57900000     -36.21490000     -69.30190000
C      -44.42940000     -34.81070000     -67.79360000
H      -43.71120000     -35.42570000     -67.26790000
H      -45.01580000     -34.43570000     -66.92820000
C      -44.90790000     -37.54430000     -71.89330000
H      -44.35120000     -38.39420000     -71.51520000
H      -45.73300000     -37.95650000     -72.50380000
S      -43.38370000     -33.44620000     -68.39730000
S      -43.68940000     -36.52810000     -72.90330000
C      -44.60690000     -32.34820000     -69.33370000
H      -45.29600000     -33.00350000     -69.85910000
H      -45.20390000     -31.87690000     -68.59660000
C      -44.78940000     -35.14570000     -73.47130000
H      -45.83180000     -35.44270000     -73.32880000
H      -44.56590000     -35.07620000     -74.53460000
C      -44.46850000     -33.83860000     -72.66550000
H      -44.51200000     -33.99730000     -71.58410000
H      -43.35490000     -33.52000000     -72.74210000
C      -43.82400000     -31.39070000     -70.19790000
H      -43.01950000     -31.97250000     -70.73420000
H      -43.36640000     -30.65680000     -69.50760000
C      -44.81080000     -30.64960000     -71.12730000
C      -45.25220000     -29.43330000     -70.87330000
C      -45.47940000     -31.33350000     -72.28490000
H      -44.92520000     -28.72760000     -70.11700000
C      -46.35480000     -30.41470000     -72.86890000
C      -45.35770000     -32.59190000     -73.06080000
C      -46.26020000     -32.61340000     -74.09140000
S      -46.47740000     -28.89710000     -72.03320000
S      -47.11150000     -31.04330000     -74.32990000
H      -46.49720000     -33.36470000     -74.81580000
