40
Properties=species:S:1:pos:R:3 #=T CELL(abcABC):=T 1.889726e+02=T 90.00000=T Traj:=T positionsangstrom=T Step:=T 0=T Bead:=T pbc="F F F"
C      -46.63850000     -37.55520000     -72.02770000
C      -45.59350000     -36.86780000     -72.56490000
C      -45.80610000     -35.83140000     -73.51260000
C      -47.06710000     -35.33810000     -73.72050000
C      -48.17410000     -35.94690000     -73.08400000
C      -47.97530000     -37.12060000     -72.35280000
H      -46.45640000     -38.36880000     -71.31860000
H      -44.96690000     -35.29070000     -73.87820000
H      -49.19600000     -35.52850000     -73.25700000
H      -48.86540000     -37.70970000     -71.98080000
C      -47.30440000     -34.23400000     -74.78110000
H      -48.32560000     -34.12840000     -75.15590000
H      -46.69560000     -34.32990000     -75.71080000
C      -44.16470000     -37.35060000     -72.38470000
H      -44.27990000     -38.44710000     -72.24490000
H      -43.65110000     -37.05560000     -73.28080000
S      -46.90180000     -32.51050000     -74.02430000
S      -43.55960000     -36.64530000     -70.78400000
C      -47.66880000     -32.43310000     -72.32270000
H      -48.25720000     -31.51380000     -72.18570000
H      -48.45920000     -33.18480000     -72.32510000
C      -43.39810000     -34.82500000     -71.09480000
H      -44.00230000     -34.51800000     -71.97250000
H      -42.41840000     -34.50900000     -71.42040000
C      -43.78820000     -34.11830000     -69.75460000
H      -44.84460000     -34.23950000     -69.51320000
H      -43.22100000     -34.45890000     -68.86290000
C      -46.61590000     -32.61450000     -71.21920000
H      -45.87630000     -33.31880000     -71.49740000
H      -47.26890000     -33.06800000     -70.36520000
C      -45.93460000     -31.41330000     -70.60500000
C      -46.51150000     -30.18820000     -70.43070000
C      -44.65770000     -31.57150000     -69.91190000
H      -47.41440000     -29.78830000     -70.98300000
C      -44.25610000     -30.33820000     -69.43720000
C      -43.63080000     -32.53850000     -69.69460000
C      -42.55240000     -32.09010000     -69.05060000
S      -45.42050000     -29.04910000     -69.69300000
S      -42.69520000     -30.34630000     -68.63210000
H      -41.69700000     -32.60120000     -68.60690000
