40
Properties=species:S:1:pos:R:3 #=T CELL(abcABC):=T 1.889726e+02=T 90.00000=T Traj:=T positionsangstrom=T Step:=T 0=T Bead:=T pbc="F F F"
C      -46.75440000     -36.64960000     -70.02200000
C      -45.45900000     -36.64790000     -70.44900000
C      -44.48490000     -36.02930000     -69.67930000
C      -44.82860000     -35.36310000     -68.45930000
C      -46.13930000     -35.36820000     -68.08190000
C      -47.14170000     -35.97440000     -68.90820000
H      -47.48740000     -37.24210000     -70.60600000
H      -43.48530000     -36.01700000     -70.01400000
H      -46.53860000     -34.82910000     -67.14170000
H      -48.13260000     -36.11770000     -68.60580000
C      -43.78500000     -34.64380000     -67.67720000
H      -42.96740000     -35.27270000     -67.47290000
H      -44.07520000     -34.31370000     -66.71730000
C      -45.11450000     -37.43810000     -71.70850000
H      -44.59150000     -38.33090000     -71.44250000
H      -46.01840000     -37.76330000     -72.33210000
S      -42.99660000     -33.28470000     -68.64590000
S      -43.80510000     -36.51610000     -72.68530000
C      -44.37180000     -32.21680000     -69.34320000
H      -45.11310000     -33.00090000     -69.64790000
H      -44.68220000     -31.50150000     -68.62640000
C      -45.00050000     -35.19940000     -73.38770000
H      -45.98580000     -35.66450000     -73.48010000
H      -44.75110000     -34.81830000     -74.39040000
C      -45.13380000     -33.95020000     -72.47180000
H      -45.67220000     -34.22120000     -71.58630000
H      -44.15420000     -33.67730000     -72.19490000
C      -43.83050000     -31.47640000     -70.58820000
H      -43.17100000     -32.20330000     -71.13530000
H      -43.12230000     -30.69290000     -70.33360000
C      -44.92920000     -30.85690000     -71.45810000
C      -45.37190000     -29.60220000     -71.20980000
C      -45.73020000     -31.46900000     -72.49420000
H      -45.00610000     -28.89470000     -70.47540000
C      -46.52820000     -30.51430000     -73.16180000
C      -45.79790000     -32.72440000     -73.16190000
C      -46.69940000     -32.74870000     -74.22950000
S      -46.53050000     -29.01240000     -72.35520000
S      -47.42100000     -31.17340000     -74.47970000
H      -46.96540000     -33.56830000     -74.78640000
