40
Properties=species:S:1:pos:R:3 #=T CELL(abcABC):=T 1.889726e+02=T 90.00000=T Traj:=T positionsangstrom=T Step:=T 0=T Bead:=T pbc="F F F"
C      -46.69030000     -36.76160000     -69.94840000
C      -45.34200000     -36.70230000     -70.44340000
C      -44.43540000     -35.87560000     -69.74390000
C      -44.78560000     -35.27100000     -68.58060000
C      -46.13790000     -35.26120000     -68.14460000
C      -47.08470000     -36.03990000     -68.75940000
H      -47.44040000     -37.36110000     -70.47360000
H      -43.35940000     -35.74600000     -70.00670000
H      -46.34410000     -34.72600000     -67.24950000
H      -48.11840000     -36.01070000     -68.37400000
C      -43.82850000     -34.49620000     -67.64840000
H      -43.16630000     -35.24500000     -67.30570000
H      -44.35380000     -34.01760000     -66.89650000
C      -45.02360000     -37.54720000     -71.66100000
H      -44.48580000     -38.46480000     -71.32700000
H      -45.94000000     -37.93980000     -72.05310000
S      -42.93250000     -33.19290000     -68.62510000
S      -44.17980000     -36.75120000     -73.13000000
C      -44.38220000     -32.39690000     -69.44370000
H      -45.02140000     -33.04370000     -69.95250000
H      -45.06930000     -31.98040000     -68.61970000
C      -45.24870000     -35.22920000     -73.46350000
H      -46.27890000     -35.57050000     -73.20910000
H      -45.26730000     -35.02510000     -74.53580000
C      -44.90690000     -34.01310000     -72.64630000
H      -45.03800000     -34.23520000     -71.58990000
H      -43.83250000     -33.88560000     -72.65390000
C      -43.91270000     -31.28360000     -70.34560000
H      -43.27890000     -31.74500000     -71.10640000
H      -43.38030000     -30.49480000     -69.79550000
C      -44.98700000     -30.76260000     -71.21500000
C      -45.45290000     -29.49500000     -71.06560000
C      -45.69270000     -31.43920000     -72.34690000
H      -45.18800000     -28.77270000     -70.43550000
C      -46.64370000     -30.56900000     -72.91300000
C      -45.60120000     -32.72690000     -73.05380000
C      -46.41200000     -32.71170000     -74.22440000
S      -46.57510000     -28.94630000     -72.27000000
S      -47.25950000     -31.21800000     -74.47160000
H      -46.54430000     -33.45350000     -74.94240000
