40
Properties=species:S:1:pos:R:3 #=T CELL(abcABC):=T 1.889726e+02=T 90.00000=T Traj:=T positionsangstrom=T Step:=T 0=T Bead:=T pbc="F F F"
C      -46.51290000     -36.87210000     -69.98500000
C      -45.17430000     -36.79000000     -70.39250000
C      -44.18980000     -36.05970000     -69.71590000
C      -44.58160000     -35.44830000     -68.47700000
C      -45.94060000     -35.54060000     -68.07180000
C      -46.89720000     -36.28520000     -68.78720000
H      -47.30910000     -37.47180000     -70.45510000
H      -43.16450000     -36.17400000     -70.16230000
H      -46.09490000     -35.01460000     -67.17520000
H      -47.92640000     -36.26430000     -68.45670000
C      -43.73020000     -34.51310000     -67.70000000
H      -42.97700000     -35.02020000     -67.13490000
H      -44.24380000     -33.90240000     -67.02030000
C      -44.82410000     -37.46100000     -71.65780000
H      -44.04770000     -38.21720000     -71.42960000
H      -45.64210000     -37.91590000     -72.15030000
S      -42.78690000     -33.37930000     -68.91850000
S      -43.93650000     -36.38030000     -72.89140000
C      -44.21280000     -32.38740000     -69.57750000
H      -44.93120000     -33.05650000     -70.05510000
H      -44.64030000     -31.84890000     -68.78230000
C      -45.25990000     -35.17140000     -73.23300000
H      -46.03620000     -35.20220000     -72.42770000
H      -45.74600000     -35.30480000     -74.22770000
C      -44.77380000     -33.73480000     -73.11650000
H      -44.42030000     -33.64660000     -72.07340000
H      -43.89760000     -33.50550000     -73.72670000
C      -43.77450000     -31.49760000     -70.75600000
H      -43.23140000     -32.04660000     -71.45740000
H      -43.10730000     -30.72910000     -70.32550000
C      -44.93590000     -30.73090000     -71.42980000
C      -45.45730000     -29.51130000     -71.06130000
C      -45.73610000     -31.35370000     -72.50090000
H      -45.04120000     -28.88990000     -70.19770000
C      -46.68910000     -30.44730000     -73.03370000
C      -45.82420000     -32.62360000     -73.26130000
C      -47.00540000     -32.72540000     -73.99610000
S      -46.84080000     -28.99450000     -72.10470000
S      -47.85390000     -31.14170000     -74.12240000
H      -47.15190000     -33.46330000     -74.71830000
