40
Properties=species:S:1:pos:R:3 #=T CELL(abcABC):=T 1.889726e+02=T 90.00000=T Traj:=T positionsangstrom=T Step:=T 0=T Bead:=T pbc="F F F"
C      -46.84240000     -36.63390000     -70.36080000
C      -45.48000000     -36.68230000     -70.64420000
C      -44.64030000     -36.04530000     -69.74520000
C      -45.08170000     -35.34140000     -68.59300000
C      -46.45400000     -35.39120000     -68.31910000
C      -47.29520000     -36.01320000     -69.19260000
H      -47.52870000     -37.12810000     -70.99380000
H      -43.49910000     -36.07700000     -69.79220000
H      -46.78520000     -34.91040000     -67.44410000
H      -48.34740000     -36.00170000     -68.83070000
C      -44.07350000     -34.62950000     -67.68900000
H      -43.27780000     -35.31050000     -67.44430000
H      -44.51140000     -34.23340000     -66.75280000
C      -45.01760000     -37.43460000     -71.84510000
H      -44.44690000     -38.31310000     -71.48810000
H      -45.80280000     -37.79610000     -72.63000000
S      -43.19740000     -33.20520000     -68.51160000
S      -43.69320000     -36.54120000     -72.83410000
C      -44.48770000     -32.09380000     -69.34500000
H      -45.28520000     -32.80420000     -69.57740000
H      -44.86450000     -31.35420000     -68.70980000
C      -44.67200000     -35.05200000     -73.35880000
H      -45.67780000     -35.45890000     -73.75420000
H      -44.09020000     -34.73030000     -74.25330000
C      -44.88790000     -33.93140000     -72.37850000
H      -45.42050000     -34.35510000     -71.50070000
H      -43.89690000     -33.57650000     -72.00410000
C      -43.74910000     -31.45180000     -70.54490000
H      -43.17230000     -32.18140000     -71.06890000
H      -42.94550000     -30.77250000     -70.07790000
C      -44.77840000     -30.76820000     -71.37360000
C      -45.20050000     -29.45470000     -71.27730000
C      -45.64340000     -31.44160000     -72.33370000
H      -44.67780000     -28.77620000     -70.62640000
C      -46.49320000     -30.59110000     -73.03840000
C      -45.75960000     -32.81490000     -72.87460000
C      -46.72410000     -32.89360000     -73.91090000
S      -46.36730000     -28.97880000     -72.44060000
S      -47.44190000     -31.35550000     -74.24750000
H      -47.24400000     -33.83680000     -74.27710000
