40
Properties=species:S:1:pos:R:3 #=T CELL(abcABC):=T 1.889726e+02=T 90.00000=T Traj:=T positionsangstrom=T Step:=T 0=T Bead:=T pbc="F F F"
C      -46.72960000     -36.58460000     -70.05480000
C      -45.32260000     -36.74880000     -70.44940000
C      -44.37730000     -36.02930000     -69.69760000
C      -44.72840000     -35.41310000     -68.50780000
C      -45.99080000     -35.50200000     -68.02760000
C      -47.03510000     -36.00070000     -68.84660000
H      -47.40430000     -37.11220000     -70.71060000
H      -43.33720000     -35.93250000     -70.04990000
H      -46.26980000     -35.15240000     -67.10140000
H      -48.06000000     -35.84690000     -68.37580000
C      -43.60310000     -34.74150000     -67.76730000
H      -42.65870000     -35.30940000     -67.54570000
H      -43.91890000     -34.38420000     -66.70780000
C      -44.92800000     -37.53240000     -71.65220000
H      -44.05360000     -38.14150000     -71.39470000
H      -45.67790000     -38.24480000     -72.04680000
S      -42.90720000     -33.23460000     -68.64610000
S      -44.19290000     -36.54040000     -73.06810000
C      -44.37700000     -32.36500000     -69.31820000
H      -45.11590000     -33.11640000     -69.63360000
H      -44.71090000     -31.67790000     -68.56130000
C      -45.30960000     -35.09960000     -73.30510000
H      -46.25750000     -35.44170000     -72.88450000
H      -45.40660000     -34.89980000     -74.39950000
C      -44.85540000     -33.83910000     -72.65020000
H      -44.79350000     -33.84180000     -71.57780000
H      -43.86190000     -33.57550000     -73.01530000
C      -43.90300000     -31.39510000     -70.45000000
H      -43.18210000     -31.97610000     -71.07380000
H      -43.20940000     -30.65490000     -70.03220000
C      -44.97830000     -30.80850000     -71.28850000
C      -45.41950000     -29.54220000     -71.06190000
C      -45.63460000     -31.36000000     -72.52160000
H      -45.17670000     -28.88400000     -70.32620000
C      -46.52230000     -30.46900000     -73.09000000
C      -45.67470000     -32.69000000     -73.11080000
C      -46.67160000     -32.76490000     -74.09030000
S      -46.64050000     -28.97180000     -72.30230000
S      -47.45670000     -31.24330000     -74.40830000
H      -47.08950000     -33.67160000     -74.49080000
