40
Properties=species:S:1:pos:R:3 #=T CELL(abcABC):=T 1.889726e+02=T 90.00000=T Traj:=T positionsangstrom=T Step:=T 0=T Bead:=T pbc="F F F"
C      -46.79040000     -36.74180000     -70.00700000
C      -45.47160000     -36.71780000     -70.43070000
C      -44.52730000     -36.07960000     -69.65220000
C      -44.87610000     -35.31590000     -68.52230000
C      -46.20010000     -35.35110000     -68.09560000
C      -47.16850000     -36.04160000     -68.79260000
H      -47.63140000     -37.23630000     -70.47930000
H      -43.45550000     -36.06950000     -69.97470000
H      -46.42450000     -34.81280000     -67.11910000
H      -48.22150000     -36.10300000     -68.47910000
C      -43.79440000     -34.55060000     -67.71210000
H      -43.03180000     -35.32640000     -67.36050000
H      -44.19040000     -34.02430000     -66.75810000
C      -45.04330000     -37.51150000     -71.63980000
H      -44.41280000     -38.37950000     -71.36970000
H      -45.93850000     -37.83520000     -72.14610000
S      -42.86490000     -33.21810000     -68.65570000
S      -44.10470000     -36.57610000     -72.90150000
C      -44.28710000     -32.27810000     -69.37380000
H      -45.13560000     -32.99800000     -69.55720000
H      -44.60490000     -31.63870000     -68.48940000
C      -45.05740000     -35.16240000     -73.51430000
H      -46.07080000     -35.56240000     -73.68780000
H      -44.61790000     -34.95540000     -74.45850000
C      -45.04740000     -33.99240000     -72.53300000
H      -45.54660000     -34.28340000     -71.57910000
H      -43.97410000     -33.70020000     -72.37440000
C      -43.85760000     -31.49950000     -70.57830000
H      -43.31090000     -32.13040000     -71.25820000
H      -43.14680000     -30.73300000     -70.21980000
C      -44.90990000     -30.76470000     -71.36090000
C      -45.34320000     -29.51840000     -71.10990000
C      -45.67590000     -31.41240000     -72.42550000
H      -44.99750000     -28.83470000     -70.43550000
C      -46.51400000     -30.48640000     -73.10460000
C      -45.69810000     -32.69810000     -73.05580000
C      -46.52730000     -32.78020000     -74.17400000
S      -46.67840000     -28.99940000     -72.25570000
S      -47.23980000     -31.18110000     -74.51900000
H      -46.63390000     -33.53110000     -74.84150000
