40
Properties=species:S:1:pos:R:3 #=T CELL(abcABC):=T 1.889726e+02=T 90.00000=T Traj:=T positionsangstrom=T Step:=T 0=T Bead:=T pbc="F F F"
C      -46.60300000     -36.98490000     -69.88540000
C      -45.25290000     -36.96070000     -70.28760000
C      -44.26650000     -36.25970000     -69.63040000
C      -44.65530000     -35.38150000     -68.55290000
C      -46.02860000     -35.34650000     -68.20350000
C      -46.95330000     -36.21110000     -68.77000000
H      -47.30510000     -37.55290000     -70.49910000
H      -43.28600000     -36.21650000     -70.12350000
H      -46.27920000     -34.71100000     -67.27840000
H      -47.97900000     -36.32760000     -68.55340000
C      -43.57970000     -34.56310000     -67.89090000
H      -42.79900000     -35.33360000     -67.61020000
H      -44.07860000     -34.09960000     -67.00330000
C      -44.79860000     -37.63670000     -71.57250000
H      -44.06720000     -38.45010000     -71.39550000
H      -45.68560000     -38.15830000     -72.00220000
S      -42.78220000     -33.29730000     -68.93080000
S      -43.97480000     -36.33870000     -72.79490000
C      -44.25730000     -32.55460000     -69.70090000
H      -44.84290000     -33.35430000     -70.13460000
H      -44.96210000     -32.14470000     -68.93950000
C      -45.26570000     -35.11060000     -73.38770000
H      -46.24700000     -35.47040000     -73.02310000
H      -45.26010000     -35.16960000     -74.46160000
C      -44.81720000     -33.74990000     -72.95540000
H      -44.68530000     -33.81860000     -71.89050000
H      -43.81480000     -33.44990000     -73.32760000
C      -43.83530000     -31.44950000     -70.64170000
H      -43.04320000     -31.92530000     -71.30880000
H      -43.44210000     -30.57320000     -70.06550000
C      -45.04240000     -30.80750000     -71.36230000
C      -45.38360000     -29.51690000     -71.10870000
C      -45.85640000     -31.40270000     -72.38810000
H      -44.91920000     -28.83260000     -70.38960000
C      -46.75060000     -30.47130000     -72.90160000
C      -45.85040000     -32.61110000     -73.21270000
C      -46.83880000     -32.65090000     -74.21890000
S      -46.69810000     -28.89620000     -72.05250000
S      -47.77030000     -31.13140000     -74.25400000
H      -46.89860000     -33.32730000     -75.10480000
