40
Properties=species:S:1:pos:R:3 #=T CELL(abcABC):=T 1.889726e+02=T 90.00000=T Traj:=T positionsangstrom=T Step:=T 0=T Bead:=T pbc="F F F"
C      -46.55270000     -36.89690000     -69.91280000
C      -45.23130000     -36.79170000     -70.45070000
C      -44.37570000     -35.96630000     -69.72670000
C      -44.69770000     -35.44720000     -68.46440000
C      -45.97760000     -35.66180000     -67.93170000
C      -46.95180000     -36.30700000     -68.72540000
H      -47.31740000     -37.43960000     -70.51980000
H      -43.32290000     -35.63020000     -70.10690000
H      -46.11310000     -35.16420000     -66.98190000
H      -47.96320000     -36.55720000     -68.34530000
C      -43.68140000     -34.58250000     -67.76480000
H      -42.93130000     -35.27940000     -67.29560000
H      -44.16020000     -34.03740000     -67.01840000
C      -44.91870000     -37.41210000     -71.75880000
H      -44.30880000     -38.28660000     -71.60180000
H      -45.85570000     -37.80270000     -72.25340000
S      -42.77130000     -33.44380000     -68.87840000
S      -44.04880000     -36.48340000     -72.99600000
C      -44.14280000     -32.17100000     -69.39270000
H      -45.01190000     -32.77260000     -69.46630000
H      -44.23300000     -31.46520000     -68.53640000
C      -45.27340000     -35.16780000     -73.38940000
H      -45.97940000     -35.36290000     -72.63320000
H      -45.67990000     -35.39170000     -74.36650000
C      -44.79610000     -33.69200000     -73.18780000
H      -44.22930000     -33.64790000     -72.22600000
H      -44.02740000     -33.48400000     -73.85380000
C      -43.79760000     -31.43930000     -70.66890000
H      -43.50690000     -32.26050000     -71.36490000
H      -43.00230000     -30.70890000     -70.56500000
C      -44.98440000     -30.79440000     -71.43920000
C      -45.34440000     -29.48340000     -71.04350000
C      -45.78450000     -31.39590000     -72.47080000
H      -44.62830000     -28.71330000     -70.59740000
C      -46.75140000     -30.47260000     -72.88720000
C      -45.79520000     -32.61030000     -73.23690000
C      -46.86700000     -32.61700000     -74.10870000
S      -46.64850000     -28.94950000     -72.09250000
S      -47.80520000     -31.12000000     -74.12490000
H      -47.11730000     -33.37100000     -74.80000000
