40
Properties=species:S:1:pos:R:3 #=T CELL(abcABC):=T 1.889726e+02=T 90.00000=T Traj:=T positionsangstrom=T Step:=T 0=T Bead:=T pbc="F F F"
C      -46.56720000     -36.67330000     -70.10520000
C      -45.24250000     -36.84470000     -70.51290000
C      -44.27680000     -36.16300000     -69.79950000
C      -44.54560000     -35.41130000     -68.62710000
C      -45.83790000     -35.38310000     -68.15740000
C      -46.83880000     -36.03910000     -68.84360000
H      -47.31100000     -37.13890000     -70.69040000
H      -43.28060000     -36.16980000     -70.06510000
H      -46.04350000     -34.88140000     -67.17540000
H      -47.86690000     -35.95500000     -68.52830000
C      -43.37850000     -34.78890000     -67.88070000
H      -42.48980000     -35.33160000     -67.92020000
H      -43.56900000     -34.71900000     -66.78210000
C      -44.99110000     -37.44880000     -71.90980000
H      -44.37990000     -38.38930000     -71.97420000
H      -45.96740000     -37.70960000     -72.30050000
S      -42.84910000     -33.16420000     -68.57830000
S      -44.19790000     -36.53290000     -73.22460000
C      -44.35600000     -32.40730000     -69.36330000
H      -44.90070000     -33.18380000     -69.83820000
H      -45.08650000     -31.95100000     -68.68860000
C      -45.08710000     -34.98000000     -73.57990000
H      -46.15230000     -35.25030000     -73.67380000
H      -44.77770000     -34.57180000     -74.52780000
C      -45.01500000     -33.88690000     -72.56860000
H      -45.36650000     -34.28080000     -71.65020000
H      -43.99970000     -33.49720000     -72.47250000
C      -43.91490000     -31.44030000     -70.46850000
H      -43.35330000     -32.04760000     -71.13620000
H      -43.39080000     -30.50310000     -70.10640000
C      -45.04970000     -30.82480000     -71.27560000
C      -45.40460000     -29.49020000     -71.08260000
C      -45.81710000     -31.42110000     -72.33380000
H      -45.00590000     -28.87910000     -70.28390000
C      -46.76460000     -30.50750000     -72.83550000
C      -45.84090000     -32.70310000     -72.97570000
C      -46.74540000     -32.70850000     -74.01520000
S      -46.66570000     -28.97280000     -72.15900000
S      -47.63630000     -31.22710000     -74.21740000
H      -47.02980000     -33.55500000     -74.62220000
