40
Properties=species:S:1:pos:R:3 #=T CELL(abcABC):=T 1.889726e+02=T 90.00000=T Traj:=T positionsangstrom=T Step:=T 0=T Bead:=T pbc="F F F"
C      -45.63930000     -29.87340000     -72.01800000
C      -46.53910000     -30.62320000     -72.78280000
C      -46.01550000     -31.53180000     -73.75710000
C      -44.60440000     -31.60780000     -73.89800000
C      -43.72150000     -30.82480000     -73.07990000
C      -44.24280000     -30.03110000     -72.07750000
H      -45.96260000     -29.14500000     -71.25260000
H      -46.66650000     -32.04920000     -74.40390000
H      -42.66140000     -30.90640000     -73.34500000
H      -43.64900000     -29.32860000     -71.46960000
C      -44.00090000     -32.32950000     -75.11400000
H      -43.05360000     -31.99070000     -75.41990000
H      -44.66300000     -32.40340000     -75.97580000
C      -48.05350000     -30.44370000     -72.68180000
H      -48.33860000     -29.54690000     -72.21040000
H      -48.45710000     -30.41450000     -73.68340000
S      -43.67840000     -34.20150000     -74.71640000
S      -48.91850000     -32.08150000     -72.14380000
C      -43.30710000     -34.36970000     -72.85930000
H      -42.25340000     -34.63770000     -72.62740000
H      -43.44670000     -33.44170000     -72.39120000
C      -47.95170000     -32.73590000     -70.72670000
H      -48.78860000     -33.04800000     -70.04230000
H      -47.40140000     -31.88610000     -70.47690000
C      -46.89810000     -33.74290000     -71.02050000
H      -47.29260000     -34.63360000     -71.59730000
H      -46.26280000     -33.18040000     -71.69220000
C      -44.15280000     -35.42340000     -72.13820000
H      -43.85120000     -36.36230000     -72.58240000
H      -45.23130000     -35.20780000     -72.36800000
C      -44.06630000     -35.39130000     -70.65520000
C      -42.94720000     -35.98810000     -70.09320000
C      -45.01160000     -34.94270000     -69.68470000
H      -42.09660000     -36.54360000     -70.51140000
C      -44.60730000     -35.08030000     -68.40070000
C      -46.28250000     -34.30750000     -69.79220000
C      -46.80570000     -34.09190000     -68.57310000
S      -43.09360000     -35.89860000     -68.31980000
S      -45.72440000     -34.56560000     -67.24550000
H      -47.64430000     -33.42890000     -68.30820000
