40
Properties=species:S:1:pos:R:3 #=T CELL(abcABC):=T 1.889726e+02=T 90.00000=T Traj:=T positionsangstrom=T Step:=T 0=T Bead:=T pbc="F F F"
C      -46.14980000     -36.55120000     -70.83150000
C      -44.71160000     -36.60960000     -70.86000000
C      -43.98550000     -35.96190000     -69.85450000
C      -44.61610000     -35.18870000     -68.86130000
C      -46.01710000     -35.17420000     -68.83240000
C      -46.72770000     -35.93960000     -69.72750000
H      -46.79180000     -37.07310000     -71.58710000
H      -42.88070000     -35.95820000     -69.89290000
H      -46.57320000     -34.78450000     -67.96880000
H      -47.82760000     -36.02590000     -69.61570000
C      -43.90310000     -34.46760000     -67.84750000
H      -42.95170000     -35.01110000     -67.53080000
H      -44.57840000     -34.15540000     -66.97170000
C      -43.88140000     -37.32590000     -71.90180000
H      -42.99070000     -37.74490000     -71.50250000
H      -44.43110000     -38.04510000     -72.49100000
S      -43.05730000     -32.87620000     -68.54520000
S      -43.15990000     -36.08030000     -73.16830000
C      -44.44720000     -32.26790000     -69.48750000
H      -44.95830000     -33.04170000     -70.01690000
H      -45.23350000     -31.70190000     -68.91280000
C      -44.62450000     -34.99430000     -73.47810000
H      -45.51610000     -35.59000000     -73.26330000
H      -44.62390000     -34.70670000     -74.56430000
C      -44.66700000     -33.77190000     -72.52140000
H      -44.57760000     -34.14140000     -71.45970000
H      -43.74680000     -33.15890000     -72.59560000
C      -43.97700000     -31.24460000     -70.62880000
H      -43.28680000     -31.68180000     -71.35380000
H      -43.38590000     -30.40230000     -70.25280000
C      -45.12570000     -30.68020000     -71.40700000
C      -45.76860000     -29.47420000     -71.20430000
C      -46.08900000     -31.58620000     -72.13490000
H      -45.33530000     -28.56270000     -70.64730000
C      -47.22550000     -30.95760000     -72.56380000
C      -45.88690000     -32.93560000     -72.71190000
C      -46.97470000     -33.24330000     -73.43280000
S      -47.35450000     -29.30530000     -72.02190000
S      -48.21310000     -31.98170000     -73.64060000
H      -47.08420000     -34.10690000     -74.10500000
