40
Properties=species:S:1:pos:R:3 #=T CELL(abcABC):=T 1.889726e+02=T 90.00000=T Traj:=T positionsangstrom=T Step:=T 0=T Bead:=T pbc="F F F"
C      -46.04730000     -36.58210000     -70.83130000
C      -44.66130000     -36.62450000     -70.88360000
C      -43.86560000     -35.97790000     -69.87160000
C      -44.55830000     -35.22350000     -68.87560000
C      -45.99230000     -35.26570000     -68.81470000
C      -46.70840000     -35.93200000     -69.79180000
H      -46.70290000     -37.12150000     -71.55670000
H      -42.78180000     -35.86600000     -70.00450000
H      -46.49410000     -34.73570000     -67.99880000
H      -47.76380000     -35.89490000     -69.90260000
C      -43.76390000     -34.43330000     -67.79940000
H      -43.05480000     -35.02230000     -67.29640000
H      -44.42370000     -34.16620000     -67.04840000
C      -44.00430000     -37.25260000     -72.09610000
H      -43.11740000     -37.97430000     -71.81220000
H      -44.64240000     -37.95650000     -72.64560000
S      -42.90910000     -33.02700000     -68.65590000
S      -43.16730000     -36.02550000     -73.18310000
C      -44.51790000     -32.09300000     -69.20260000
H      -45.22520000     -32.90070000     -69.46020000
H      -44.91410000     -31.59910000     -68.34940000
C      -44.52720000     -34.85410000     -73.60760000
H      -45.44370000     -35.39850000     -73.84340000
H      -44.19040000     -34.36330000     -74.54640000
C      -44.76780000     -33.84460000     -72.45010000
H      -44.95420000     -34.45430000     -71.56910000
H      -43.84210000     -33.25700000     -72.39910000
C      -44.14040000     -31.09240000     -70.34100000
H      -43.29290000     -31.52720000     -70.99380000
H      -43.70230000     -30.19520000     -69.90240000
C      -45.32120000     -30.71210000     -71.19050000
C      -45.91160000     -29.44900000     -71.08730000
C      -46.04370000     -31.57400000     -72.13900000
H      -45.53640000     -28.50120000     -70.56800000
C      -47.20300000     -30.97600000     -72.66690000
C      -45.94550000     -32.91510000     -72.62120000
C      -47.03100000     -33.33220000     -73.39300000
S      -47.35580000     -29.29050000     -72.18610000
S      -48.25130000     -32.01430000     -73.61060000
H      -47.14870000     -34.20310000     -74.00130000
