40
Properties=species:S:1:pos:R:3 #=T CELL(abcABC):=T 1.889726e+02=T 90.00000=T Traj:=T positionsangstrom=T Step:=T 0=T Bead:=T pbc="F F F"
C      -45.86750000     -30.10970000     -71.84010000
C      -46.71570000     -30.80330000     -72.75440000
C      -46.09990000     -31.47610000     -73.77610000
C      -44.71330000     -31.50690000     -73.90640000
C      -43.86740000     -30.79870000     -73.01350000
C      -44.51180000     -30.13650000     -71.89400000
H      -46.44760000     -29.54510000     -71.12590000
H      -46.71550000     -32.08040000     -74.53450000
H      -42.75310000     -30.99030000     -73.00660000
H      -44.02370000     -29.48560000     -71.16860000
C      -44.16820000     -32.24330000     -75.05920000
H      -43.24380000     -31.92510000     -75.49770000
H      -44.85540000     -32.16270000     -75.86560000
C      -48.26170000     -30.80960000     -72.64760000
H      -48.72350000     -30.09520000     -71.93240000
H      -48.78090000     -30.56180000     -73.61640000
S      -43.95070000     -34.03920000     -74.68420000
S      -48.94160000     -32.49870000     -72.26310000
C      -43.47930000     -34.33620000     -72.88400000
H      -42.40910000     -34.52270000     -72.85920000
H      -43.65280000     -33.52390000     -72.15990000
C      -48.17960000     -32.96330000     -70.62480000
H      -49.02060000     -33.45040000     -70.06590000
H      -48.03760000     -31.99980000     -70.23800000
C      -46.96610000     -33.72230000     -70.90200000
H      -47.41600000     -34.64900000     -71.32320000
H      -46.33400000     -33.29410000     -71.67250000
C      -44.22000000     -35.57610000     -72.29060000
H      -43.74440000     -36.54220000     -72.61820000
H      -45.25150000     -35.62090000     -72.59510000
C      -44.08040000     -35.58740000     -70.73220000
C      -42.96660000     -36.17320000     -70.13410000
C      -44.80050000     -34.80800000     -69.76410000
H      -42.25520000     -36.84040000     -70.70270000
C      -44.37010000     -35.00800000     -68.46360000
C      -46.09460000     -34.00580000     -69.71150000
C      -46.41280000     -33.53950000     -68.48550000
S      -42.84960000     -36.01240000     -68.42770000
S      -45.22460000     -34.03160000     -67.26450000
H      -47.26290000     -32.96660000     -68.16270000
