40
Properties=species:S:1:pos:R:3 #=T CELL(abcABC):=T 1.889726e+02=T 90.00000=T Traj:=T positionsangstrom=T Step:=T 0=T Bead:=T pbc="F F F"
C      -46.08040000     -36.77080000     -70.77530000
C      -44.67750000     -36.78990000     -70.90240000
C      -43.93420000     -36.00510000     -69.94320000
C      -44.53660000     -35.39790000     -68.80590000
C      -45.96060000     -35.32970000     -68.77240000
C      -46.67390000     -36.04090000     -69.75570000
H      -46.65940000     -37.18370000     -71.59460000
H      -42.83540000     -36.10370000     -69.83940000
H      -46.46640000     -34.66940000     -68.08210000
H      -47.73320000     -36.03670000     -69.72510000
C      -43.56300000     -34.57990000     -67.97970000
H      -42.54590000     -35.13540000     -67.88770000
H      -44.02960000     -34.40170000     -66.94980000
C      -44.04370000     -37.34200000     -72.13170000
H      -43.30220000     -38.04460000     -71.75520000
H      -44.80820000     -37.74350000     -72.77040000
S      -43.01120000     -32.98570000     -68.70860000
S      -43.17840000     -36.03760000     -73.22450000
C      -44.40100000     -31.89760000     -69.14190000
H      -45.22650000     -32.62370000     -69.38790000
H      -44.63910000     -31.31370000     -68.23610000
C      -44.55430000     -34.85440000     -73.48780000
H      -45.38760000     -35.55250000     -73.67890000
H      -44.42100000     -34.30440000     -74.41630000
C      -44.70900000     -33.76060000     -72.51400000
H      -44.46090000     -34.18490000     -71.53070000
H      -43.82500000     -33.05900000     -72.61310000
C      -44.08340000     -31.04240000     -70.38080000
H      -43.37640000     -31.65790000     -70.93530000
H      -43.66730000     -30.12360000     -70.00400000
C      -45.36860000     -30.68550000     -71.13270000
C      -46.00420000     -29.39620000     -71.06680000
C      -46.08840000     -31.56170000     -72.04930000
H      -45.73070000     -28.54600000     -70.46510000
C      -47.28580000     -30.95910000     -72.57430000
C      -45.95690000     -32.91800000     -72.63370000
C      -47.02000000     -33.19510000     -73.51190000
S      -47.34310000     -29.28070000     -72.07690000
S      -48.20650000     -31.91780000     -73.66430000
H      -47.16860000     -34.08510000     -74.03990000
