40
Properties=species:S:1:pos:R:3 #=T CELL(abcABC):=T 1.889726e+02=T 90.00000=T Traj:=T positionsangstrom=T Step:=T 0=T Bead:=T pbc="F F F"
C      -46.23500000     -36.70400000     -70.59070000
C      -44.89190000     -36.70820000     -70.67490000
C      -44.20990000     -35.87760000     -69.73870000
C      -44.85350000     -35.08560000     -68.79020000
C      -46.29580000     -35.21670000     -68.68560000
C      -46.96080000     -35.91460000     -69.66580000
H      -46.75260000     -37.34650000     -71.29110000
H      -43.09890000     -35.81670000     -69.90220000
H      -46.88380000     -34.61910000     -67.93570000
H      -48.04060000     -35.84360000     -69.72190000
C      -44.00210000     -34.38300000     -67.74860000
H      -43.31130000     -35.06290000     -67.29140000
H      -44.51580000     -33.95720000     -66.86900000
C      -44.18240000     -37.43350000     -71.77190000
H      -43.28020000     -37.92040000     -71.34440000
H      -44.65680000     -38.25810000     -72.28400000
S      -42.98270000     -32.97030000     -68.49950000
S      -43.49420000     -36.29020000     -73.01500000
C      -44.24930000     -32.09770000     -69.38160000
H      -45.01230000     -32.81560000     -69.66990000
H      -44.77480000     -31.52560000     -68.66650000
C      -44.80210000     -35.11580000     -73.52530000
H      -45.72850000     -35.53750000     -72.99040000
H      -44.95680000     -35.21850000     -74.59100000
C      -44.45490000     -33.69240000     -72.92530000
H      -44.18790000     -33.72530000     -71.89330000
H      -43.67580000     -33.29690000     -73.54950000
C      -43.79240000     -31.30470000     -70.64200000
H      -43.30830000     -32.06810000     -71.28750000
H      -43.10180000     -30.48520000     -70.45180000
C      -45.02690000     -30.77800000     -71.40950000
C      -45.57580000     -29.50980000     -71.18830000
C      -45.86790000     -31.56160000     -72.27220000
H      -45.08520000     -28.77780000     -70.55560000
C      -47.08980000     -30.89190000     -72.60210000
C      -45.70300000     -32.80650000     -73.01710000
C      -46.71560000     -32.99660000     -73.88430000
S      -47.25810000     -29.33440000     -71.91110000
S      -47.99010000     -31.75730000     -73.85640000
H      -46.74480000     -33.69460000     -74.71910000
