40
Properties=species:S:1:pos:R:3 #=T CELL(abcABC):=T 1.889726e+02=T 90.00000=T Traj:=T positionsangstrom=T Step:=T 0=T Bead:=T pbc="F F F"
C      -45.90510000     -36.65990000     -70.68620000
C      -44.52230000     -36.45100000     -71.06850000
C      -43.64890000     -35.82470000     -70.17990000
C      -44.13320000     -35.35270000     -68.96920000
C      -45.49420000     -35.51540000     -68.65830000
C      -46.39770000     -36.24670000     -69.43750000
H      -46.62710000     -36.93500000     -71.40320000
H      -42.53830000     -35.63170000     -70.33710000
H      -45.84160000     -35.10650000     -67.68050000
H      -47.41970000     -36.35230000     -69.11080000
C      -43.17530000     -34.68760000     -67.99060000
H      -42.22300000     -35.34110000     -68.01270000
H      -43.68020000     -34.60230000     -67.02410000
C      -44.05390000     -36.98780000     -72.37730000
H      -43.40630000     -37.74800000     -72.13950000
H      -44.86610000     -37.53510000     -72.92950000
S      -42.76100000     -32.92930000     -68.51400000
S      -43.35950000     -35.75470000     -73.55140000
C      -44.30240000     -32.35310000     -69.23950000
H      -44.72720000     -33.27700000     -69.60290000
H      -44.91180000     -31.96810000     -68.38910000
C      -44.81350000     -34.70540000     -73.67290000
H      -45.63760000     -35.15730000     -73.24020000
H      -45.09530000     -34.46340000     -74.68700000
C      -44.58890000     -33.33600000     -73.06420000
H      -44.23090000     -33.46670000     -72.03310000
H      -43.69510000     -32.82030000     -73.49910000
C      -44.22630000     -31.27820000     -70.34480000
H      -43.53520000     -31.70590000     -71.13810000
H      -43.83150000     -30.25850000     -69.94510000
C      -45.65640000     -31.12450000     -70.87530000
C      -46.52690000     -30.29630000     -70.25050000
C      -46.23770000     -31.71560000     -72.07780000
H      -46.34090000     -29.65490000     -69.39980000
C      -47.49370000     -31.17580000     -72.34250000
C      -45.78750000     -32.50730000     -73.17450000
C      -46.68790000     -32.47930000     -74.22350000
S      -48.03240000     -30.02500000     -71.18380000
S      -48.10080000     -31.44580000     -73.96290000
H      -46.67550000     -32.84730000     -75.25320000
