40
Properties=species:S:1:pos:R:3 #=T CELL(abcABC):=T 1.889726e+02=T 90.00000=T Traj:=T positionsangstrom=T Step:=T 0=T Bead:=T pbc="F F F"
C      -43.07910000     -36.56640000     -71.52350000
C      -44.08340000     -36.46740000     -70.52930000
C      -43.85440000     -35.73670000     -69.35170000
C      -42.65350000     -35.08580000     -69.11100000
C      -41.66570000     -35.16230000     -70.10110000
C      -41.90640000     -35.86920000     -71.29450000
H      -43.25930000     -37.00270000     -72.46170000
H      -44.72150000     -35.54140000     -68.63330000
H      -40.73000000     -34.67660000     -70.03610000
H      -41.18160000     -35.86450000     -72.04140000
C      -42.56100000     -34.18230000     -67.85700000
H      -41.54350000     -34.06440000     -67.43900000
H      -43.20890000     -34.67450000     -67.07610000
C      -45.45550000     -37.13540000     -70.61180000
H      -45.34530000     -38.24150000     -70.27390000
H      -46.23260000     -36.62500000     -69.97010000
S      -43.06060000     -32.35300000     -68.36870000
S      -46.14520000     -37.18840000     -72.31720000
C      -44.73660000     -32.36980000     -69.26540000
H      -44.97600000     -33.49600000     -69.37170000
H      -45.56980000     -31.99640000     -68.59950000
C      -46.84220000     -35.41570000     -72.34880000
H      -47.38350000     -35.28280000     -71.34980000
H      -47.68120000     -35.43010000     -73.10520000
C      -45.79300000     -34.31490000     -72.61180000
H      -45.14670000     -34.26970000     -71.72570000
H      -45.17370000     -34.52650000     -73.51530000
C      -44.54350000     -31.51320000     -70.42370000
H      -43.94510000     -32.15920000     -71.18310000
H      -44.05850000     -30.57930000     -70.19350000
C      -45.75380000     -30.97870000     -71.15370000
C      -46.21150000     -29.72110000     -70.93560000
C      -46.50820000     -31.60380000     -72.30400000
H      -45.71680000     -29.12090000     -70.26140000
C      -47.30610000     -30.67120000     -72.94130000
C      -46.50210000     -32.98350000     -72.97680000
C      -47.44480000     -32.92600000     -74.05080000
S      -47.46310000     -29.14490000     -72.05070000
S      -48.17300000     -31.38830000     -74.31470000
H      -47.51230000     -33.79610000     -74.65650000
