40
Properties=species:S:1:pos:R:3 #=T CELL(abcABC):=T 1.889726e+02=T 90.00000=T Traj:=T positionsangstrom=T Step:=T 0=T Bead:=T pbc="F F F"
C      -45.96080000     -36.53540000     -70.75560000
C      -44.58550000     -36.48570000     -70.98590000
C      -43.64800000     -35.92140000     -70.10810000
C      -44.12130000     -35.34440000     -68.93410000
C      -45.53070000     -35.51420000     -68.63430000
C      -46.39030000     -36.18600000     -69.51050000
H      -46.62100000     -37.19240000     -71.33730000
H      -42.53680000     -35.73760000     -70.39380000
H      -45.87930000     -35.21200000     -67.67200000
H      -47.44180000     -36.26150000     -69.30550000
C      -43.20790000     -34.66900000     -67.94000000
H      -42.32320000     -35.17330000     -67.84710000
H      -43.71900000     -34.61100000     -66.98680000
C      -44.08230000     -37.12750000     -72.21860000
H      -43.24340000     -37.81110000     -71.97880000
H      -44.98360000     -37.60520000     -72.68780000
S      -42.83920000     -32.97410000     -68.50700000
S      -43.33590000     -35.95380000     -73.47980000
C      -44.47470000     -32.41120000     -69.25340000
H      -45.08780000     -33.26260000     -69.55520000
H      -45.10820000     -32.01200000     -68.42110000
C      -44.75020000     -34.70630000     -73.79600000
H      -45.63110000     -35.11900000     -73.34640000
H      -44.91610000     -34.82940000     -74.90960000
C      -44.47160000     -33.27030000     -73.24360000
H      -44.18810000     -33.26300000     -72.18900000
H      -43.73040000     -32.80630000     -73.90500000
C      -44.28020000     -31.32310000     -70.34400000
H      -43.57490000     -31.63370000     -71.09750000
H      -43.87430000     -30.53210000     -69.84110000
C      -45.62140000     -30.98530000     -70.92530000
C      -46.48890000     -30.22490000     -70.20640000
C      -46.15750000     -31.42470000     -72.18030000
H      -46.39310000     -29.77760000     -69.19730000
C      -47.42670000     -30.86970000     -72.45940000
C      -45.69980000     -32.39920000     -73.24720000
C      -46.66040000     -32.53040000     -74.21290000
S      -48.00950000     -29.97450000     -71.08550000
S      -48.08350000     -31.50530000     -74.01960000
H      -46.68880000     -33.14380000     -75.12700000
