40
Properties=species:S:1:pos:R:3 #=T CELL(abcABC):=T 1.889726e+02=T 90.00000=T Traj:=T positionsangstrom=T Step:=T 0=T Bead:=T pbc="F F F"
C      -43.25460000     -36.46650000     -71.66280000
C      -43.79150000     -36.26330000     -70.35010000
C      -43.37020000     -35.16910000     -69.56100000
C      -42.45820000     -34.28930000     -70.11530000
C      -41.98000000     -34.44310000     -71.39970000
C      -42.31220000     -35.56840000     -72.19940000
H      -43.34070000     -37.40650000     -72.27370000
H      -43.83580000     -35.05060000     -68.64330000
H      -41.13320000     -33.82120000     -71.65220000
H      -41.91220000     -35.67960000     -73.23580000
C      -41.91870000     -33.09920000     -69.37180000
H      -41.37780000     -32.44160000     -70.04090000
H      -41.22030000     -33.49370000     -68.58830000
C      -44.87810000     -37.19910000     -69.85630000
H      -44.58050000     -38.28940000     -69.91990000
H      -45.18400000     -36.84890000     -68.86780000
S      -43.23460000     -32.30830000     -68.38740000
S      -46.49300000     -37.25150000     -70.81290000
C      -44.28590000     -31.34630000     -69.63810000
H      -45.31110000     -31.54150000     -69.30310000
H      -44.01910000     -30.27800000     -69.57010000
C      -47.08670000     -35.53110000     -70.91500000
H      -47.19720000     -35.06980000     -69.89080000
H      -48.14860000     -35.63930000     -71.33290000
C      -46.28590000     -34.58340000     -71.86610000
H      -45.31790000     -34.26970000     -71.46930000
H      -45.98430000     -35.17930000     -72.73540000
C      -44.10460000     -31.72330000     -71.10070000
H      -43.85400000     -32.80410000     -71.12560000
H      -43.24580000     -31.07360000     -71.49160000
C      -45.33660000     -31.21510000     -71.83880000
C      -45.39410000     -29.87530000     -72.19750000
C      -46.46180000     -31.97780000     -72.35040000
H      -44.67970000     -29.14330000     -71.95970000
C      -47.38260000     -31.18710000     -72.96850000
C      -46.98000000     -33.31840000     -72.30140000
C      -48.18960000     -33.46550000     -72.97660000
S      -46.93390000     -29.48920000     -72.94480000
S      -48.85170000     -31.92390000     -73.57500000
H      -48.72490000     -34.35690000     -73.08870000
