40
Properties=species:S:1:pos:R:3 #=T CELL(abcABC):=T 1.889726e+02=T 90.00000=T Traj:=T positionsangstrom=T Step:=T 0=T Bead:=T pbc="F F F"
C      -43.07230000     -36.66480000     -71.44560000
C      -43.76200000     -36.16450000     -70.36470000
C      -43.31980000     -34.92730000     -69.83390000
C      -42.16880000     -34.30120000     -70.31360000
C      -41.40400000     -34.88920000     -71.38670000
C      -41.90420000     -36.00710000     -71.93860000
H      -43.37390000     -37.55010000     -71.99150000
H      -43.84560000     -34.49610000     -68.95320000
H      -40.49250000     -34.43850000     -71.65370000
H      -41.28540000     -36.54000000     -72.56910000
C      -41.72600000     -32.96790000     -69.68020000
H      -41.62430000     -32.28260000     -70.51310000
H      -40.84870000     -33.21490000     -69.16470000
C      -44.92980000     -36.96830000     -69.81800000
H      -44.57160000     -37.97390000     -69.77360000
H      -45.14080000     -36.67450000     -68.74740000
S      -42.91320000     -32.19470000     -68.55610000
S      -46.47720000     -36.98960000     -70.83830000
C      -44.54190000     -32.05270000     -69.60260000
H      -45.14150000     -32.93190000     -69.24090000
H      -45.09330000     -31.20240000     -69.19480000
C      -47.01730000     -35.28530000     -70.79960000
H      -46.59210000     -34.61630000     -69.97650000
H      -48.12800000     -35.35510000     -70.84730000
C      -46.49720000     -34.62560000     -72.13740000
H      -45.45310000     -34.56350000     -72.04690000
H      -46.80240000     -35.33920000     -72.93560000
C      -44.34210000     -31.99400000     -71.10300000
H      -44.17250000     -33.04170000     -71.40590000
H      -43.32720000     -31.58110000     -71.34070000
C      -45.42530000     -31.33370000     -71.89700000
C      -45.43720000     -29.97490000     -72.04440000
C      -46.65470000     -31.98560000     -72.35350000
H      -44.68150000     -29.22430000     -71.74080000
C      -47.59620000     -31.09070000     -72.80330000
C      -47.18520000     -33.33050000     -72.47900000
C      -48.48320000     -33.33390000     -72.96610000
S      -46.94810000     -29.52690000     -72.93360000
S      -49.15570000     -31.73160000     -73.27770000
H      -49.14790000     -34.21550000     -73.18800000
