40
Properties=species:S:1:pos:R:3 #=T CELL(abcABC):=T 1.889726e+02=T 90.00000=T Traj:=T positionsangstrom=T Step:=T 0=T Bead:=T pbc="F F F"
C      -43.31850000     -36.34810000     -71.77310000
C      -43.83720000     -36.32180000     -70.44300000
C      -43.36680000     -35.36630000     -69.54750000
C      -42.52400000     -34.30750000     -70.01080000
C      -42.12650000     -34.31490000     -71.35480000
C      -42.46790000     -35.34650000     -72.23320000
H      -43.66990000     -37.12770000     -72.41610000
H      -43.73330000     -35.37430000     -68.45990000
H      -41.48970000     -33.45010000     -71.65460000
H      -42.10430000     -35.33920000     -73.27880000
C      -42.10030000     -33.15700000     -69.18950000
H      -41.50790000     -32.47480000     -69.75070000
H      -41.31550000     -33.42010000     -68.38910000
C      -44.86900000     -37.32710000     -70.09820000
H      -44.51390000     -38.34070000     -70.23760000
H      -45.09250000     -37.19360000     -68.98290000
S      -43.36160000     -32.30670000     -68.23420000
S      -46.47600000     -37.26090000     -71.08430000
C      -44.73100000     -31.56620000     -69.45520000
H      -45.65550000     -32.19440000     -69.49230000
H      -44.99190000     -30.54120000     -69.23900000
C      -46.87990000     -35.44120000     -70.80370000
H      -46.99380000     -35.41640000     -69.69530000
H      -47.91120000     -35.42510000     -71.21540000
C      -45.99960000     -34.35310000     -71.47750000
H      -45.39670000     -33.82060000     -70.79090000
H      -45.34790000     -34.87240000     -72.17570000
C      -44.17020000     -31.42380000     -70.90650000
H      -43.66360000     -32.33580000     -71.25140000
H      -43.44900000     -30.59180000     -70.79550000
C      -45.35530000     -31.07550000     -71.71930000
C      -45.43840000     -29.78800000     -72.29080000
C      -46.43890000     -31.91210000     -72.22890000
H      -44.72580000     -28.96330000     -72.14860000
C      -47.40690000     -31.17240000     -72.92050000
C      -46.82770000     -33.27420000     -72.15330000
C      -47.95500000     -33.57560000     -72.89800000
S      -46.91880000     -29.47230000     -73.19870000
S      -48.60410000     -32.20330000     -73.70560000
H      -48.29110000     -34.65210000     -73.10910000
