40
Properties=species:S:1:pos:R:3 #=T CELL(abcABC):=T 1.889726e+02=T 90.00000=T Traj:=T positionsangstrom=T Step:=T 0=T Bead:=T pbc="F F F"
C      -45.06970000     -37.25170000     -70.98330000
C      -43.82080000     -36.70780000     -71.45550000
C      -43.15780000     -35.86360000     -70.53870000
C      -43.64880000     -35.56740000     -69.24770000
C      -44.85160000     -36.15750000     -68.83550000
C      -45.50890000     -37.06190000     -69.69030000
H      -45.70470000     -37.89490000     -71.49960000
H      -42.17910000     -35.53270000     -70.80440000
H      -45.34050000     -36.00620000     -67.82890000
H      -46.48410000     -37.46450000     -69.43200000
C      -42.78010000     -34.71460000     -68.33770000
H      -41.70320000     -35.08270000     -68.32640000
H      -43.16080000     -34.63630000     -67.30410000
C      -43.33160000     -36.81470000     -72.86780000
H      -42.26110000     -37.07650000     -72.86670000
H      -43.75000000     -37.75320000     -73.30600000
S      -42.59250000     -33.03820000     -69.09550000
S      -43.57930000     -35.37320000     -74.02520000
C      -44.33680000     -32.60530000     -69.51220000
H      -44.83530000     -33.41990000     -70.00950000
H      -44.89990000     -32.36840000     -68.59210000
C      -45.13220000     -34.62390000     -73.35890000
H      -45.52840000     -34.97450000     -72.40420000
H      -45.90120000     -34.89070000     -74.19080000
C      -45.05680000     -33.06270000     -73.25940000
H      -44.31230000     -32.83550000     -72.45960000
H      -44.43690000     -32.58870000     -74.08680000
C      -44.34320000     -31.34660000     -70.37060000
H      -43.82850000     -31.54220000     -71.29800000
H      -43.89900000     -30.50050000     -69.89960000
C      -45.76050000     -30.89040000     -70.71870000
C      -46.47810000     -30.02120000     -69.96350000
C      -46.59390000     -31.44530000     -71.80900000
H      -46.31920000     -29.51770000     -69.08140000
C      -47.85940000     -30.90680000     -71.86820000
C      -46.36050000     -32.38560000     -72.92790000
C      -47.53390000     -32.51090000     -73.67040000
S      -48.10510000     -29.71090000     -70.57060000
S      -48.83720000     -31.49660000     -73.15820000
H      -47.52310000     -33.05170000     -74.64640000
