40
Properties=species:S:1:pos:R:3 #=T CELL(abcABC):=T 1.889726e+02=T 90.00000=T Traj:=T positionsangstrom=T Step:=T 0=T Bead:=T pbc="F F F"
C      -45.45280000     -37.27080000     -70.86070000
C      -44.29080000     -36.70010000     -71.30310000
C      -43.55810000     -35.85840000     -70.47690000
C      -44.01200000     -35.59650000     -69.19850000
C      -45.22910000     -36.16050000     -68.74950000
C      -45.94840000     -37.01410000     -69.57810000
H      -46.08870000     -37.92360000     -71.45570000
H      -42.74480000     -35.35880000     -70.86470000
H      -45.53600000     -36.01560000     -67.76180000
H      -46.84510000     -37.53240000     -69.29570000
C      -43.30860000     -34.68870000     -68.15700000
H      -42.35500000     -35.06850000     -67.80980000
H      -43.96990000     -34.49820000     -67.33940000
C      -43.72570000     -37.06260000     -72.68930000
H      -42.68190000     -37.57420000     -72.51120000
H      -44.26670000     -37.91910000     -73.09130000
S      -42.85960000     -33.05850000     -68.98320000
S      -43.39640000     -35.63870000     -73.84180000
C      -44.48920000     -32.41020000     -69.31080000
H      -45.11310000     -33.07060000     -69.87910000
H      -45.03230000     -32.00030000     -68.47630000
C      -45.01580000     -34.61810000     -73.74560000
H      -45.73270000     -35.41310000     -73.59950000
H      -45.29930000     -34.18360000     -74.74760000
C      -44.98550000     -33.60230000     -72.65480000
H      -45.02830000     -34.03450000     -71.62430000
H      -44.08590000     -33.06570000     -72.70960000
C      -44.26190000     -31.20980000     -70.24300000
H      -43.56140000     -31.33660000     -71.12710000
H      -43.80150000     -30.28080000     -69.69210000
C      -45.65860000     -30.81950000     -70.68490000
C      -46.37860000     -29.82760000     -70.07030000
C      -46.28000000     -31.38770000     -71.89040000
H      -46.07520000     -29.24030000     -69.21040000
C      -47.50550000     -30.69840000     -72.15910000
C      -46.05190000     -32.55490000     -72.79430000
C      -47.03230000     -32.59970000     -73.78200000
S      -47.86380000     -29.41590000     -70.95360000
S      -48.30080000     -31.42680000     -73.54670000
H      -47.32230000     -33.43930000     -74.42020000
