40
Properties=species:S:1:pos:R:3 #=T CELL(abcABC):=T 1.889726e+02=T 90.00000=T Traj:=T positionsangstrom=T Step:=T 0=T Bead:=T pbc="F F F"
C      -45.22840000     -37.47040000     -70.78150000
C      -44.04410000     -36.90950000     -71.44490000
C      -43.31900000     -35.92650000     -70.75470000
C      -43.53440000     -35.65180000     -69.35810000
C      -44.59350000     -36.34270000     -68.75250000
C      -45.39250000     -37.18790000     -69.43720000
H      -45.84640000     -38.19150000     -71.35960000
H      -42.49870000     -35.27820000     -71.18800000
H      -44.90160000     -36.09410000     -67.72470000
H      -46.29200000     -37.55670000     -68.95450000
C      -42.80060000     -34.58230000     -68.61160000
H      -41.83010000     -34.98520000     -68.30340000
H      -43.29770000     -34.30080000     -67.66230000
C      -43.75180000     -37.15160000     -72.92760000
H      -42.76840000     -37.77540000     -72.87790000
H      -44.53440000     -37.91760000     -73.42100000
S      -42.52900000     -32.95880000     -69.50510000
S      -43.49060000     -35.52970000     -73.74720000
C      -44.24060000     -32.30510000     -69.41230000
H      -44.91220000     -33.07440000     -69.74630000
H      -44.55270000     -32.15090000     -68.35680000
C      -45.15970000     -34.64090000     -73.66700000
H      -45.84540000     -35.35340000     -73.25930000
H      -45.54100000     -34.46410000     -74.61150000
C      -45.00680000     -33.25920000     -72.92460000
H      -44.34690000     -33.18360000     -71.98340000
H      -44.42850000     -32.61030000     -73.69480000
C      -44.42750000     -30.98750000     -70.14120000
H      -43.74950000     -30.89220000     -71.01120000
H      -44.17990000     -30.15480000     -69.41160000
C      -45.91970000     -30.76650000     -70.52600000
C      -46.66490000     -29.74370000     -69.97170000
C      -46.58350000     -31.44870000     -71.62280000
H      -46.31270000     -29.22920000     -68.98380000
C      -47.82590000     -30.83050000     -71.87090000
C      -46.32620000     -32.49880000     -72.59030000
C      -47.31150000     -32.57540000     -73.58280000
S      -48.23190000     -29.52720000     -70.75220000
S      -48.63820000     -31.49980000     -73.26440000
H      -47.34150000     -33.14720000     -74.50350000
