40
Properties=species:S:1:pos:R:3 #=T CELL(abcABC):=T 1.889726e+02=T 90.00000=T Traj:=T positionsangstrom=T Step:=T 0=T Bead:=T pbc="F F F"
C      -45.36590000     -37.21900000     -70.33730000
C      -44.26990000     -36.78430000     -71.06220000
C      -43.37270000     -35.86040000     -70.42190000
C      -43.63720000     -35.15360000     -69.23420000
C      -44.85660000     -35.56680000     -68.60470000
C      -45.66010000     -36.64480000     -69.10070000
H      -45.98150000     -37.96070000     -70.79650000
H      -42.50220000     -35.55530000     -71.02040000
H      -45.19620000     -35.06400000     -67.67310000
H      -46.47690000     -36.98080000     -68.42510000
C      -42.62250000     -34.31960000     -68.59100000
H      -41.63400000     -34.76840000     -68.62590000
H      -42.98970000     -34.01730000     -67.59420000
C      -44.00670000     -37.26980000     -72.41580000
H      -42.97060000     -37.69900000     -72.47870000
H      -44.65310000     -38.06950000     -72.60490000
S      -42.25860000     -32.82760000     -69.61000000
S      -43.93700000     -35.95030000     -73.74170000
C      -44.05050000     -32.14510000     -69.67580000
H      -44.72080000     -33.01230000     -69.74810000
H      -44.24480000     -31.65110000     -68.68760000
C      -45.37940000     -34.91140000     -73.33470000
H      -45.88120000     -35.43090000     -72.42820000
H      -46.01330000     -34.90230000     -74.21780000
C      -45.03460000     -33.50010000     -72.81310000
H      -44.64310000     -33.62210000     -71.76040000
H      -44.32220000     -32.99430000     -73.42170000
C      -44.12110000     -31.14330000     -70.84110000
H      -43.67580000     -31.65930000     -71.71340000
H      -43.49610000     -30.26540000     -70.62240000
C      -45.61340000     -30.73680000     -71.02090000
C      -46.22200000     -29.67580000     -70.38940000
C      -46.48030000     -31.48900000     -71.87970000
H      -45.70130000     -28.82900000     -69.76880000
C      -47.76890000     -30.93700000     -72.00310000
C      -46.30700000     -32.68980000     -72.74600000
C      -47.41110000     -32.76600000     -73.59330000
S      -47.93190000     -29.52320000     -70.91600000
S      -48.75910000     -31.77470000     -73.15210000
H      -47.58800000     -33.52890000     -74.39650000
