40
Properties=species:S:1:pos:R:3 #=T CELL(abcABC):=T 1.889726e+02=T 90.00000=T Traj:=T positionsangstrom=T Step:=T 0=T Bead:=T pbc="F F F"
C      -46.25260000     -29.57180000     -69.86910000
C      -44.99040000     -30.02650000     -70.27790000
C      -44.75390000     -30.32740000     -71.63190000
C      -45.86010000     -30.33200000     -72.50370000
C      -47.12290000     -29.86480000     -72.06640000
C      -47.30340000     -29.42890000     -70.77950000
H      -46.31310000     -29.33960000     -68.82950000
H      -43.79180000     -30.60350000     -71.99000000
H      -47.97890000     -29.86510000     -72.67230000
H      -48.18890000     -28.85690000     -70.40890000
C      -45.60750000     -30.71340000     -73.92010000
H      -44.50410000     -30.91240000     -74.00970000
H      -45.78450000     -29.76520000     -74.53200000
C      -43.88030000     -30.07240000     -69.30840000
H      -42.92960000     -30.19210000     -69.79510000
H      -43.84800000     -29.13480000     -68.79150000
S      -46.60210000     -31.99650000     -74.76750000
S      -44.00540000     -31.39260000     -68.08990000
C      -46.49440000     -33.47450000     -73.70780000
H      -47.08510000     -33.30340000     -72.75660000
H      -46.99570000     -34.26340000     -74.29020000
C      -43.98560000     -32.97530000     -69.11590000
H      -43.65500000     -33.72190000     -68.45460000
H      -43.23400000     -32.85420000     -69.90060000
C      -45.28690000     -33.39570000     -69.80980000
H      -46.14290000     -33.31160000     -69.08650000
H      -45.40280000     -32.68070000     -70.66990000
C      -45.06300000     -33.88660000     -73.29780000
H      -44.75230000     -33.06010000     -72.58810000
H      -44.34380000     -33.80910000     -74.20020000
C      -44.95540000     -35.23930000     -72.73190000
C      -44.89650000     -36.37930000     -73.52410000
C      -45.16400000     -35.58610000     -71.33700000
H      -44.73850000     -36.40120000     -74.64750000
C      -45.04080000     -37.02310000     -71.11200000
C      -45.19880000     -34.87970000     -70.06750000
C      -45.31300000     -35.74350000     -69.03190000
S      -44.82670000     -37.91470000     -72.61720000
S      -45.19030000     -37.43400000     -69.38550000
H      -45.50920000     -35.40370000     -67.96840000
