40
Properties=species:S:1:pos:R:3 #=T CELL(abcABC):=T 1.889726e+02=T 90.00000=T Traj:=T positionsangstrom=T Step:=T 0=T Bead:=T pbc="F F F"
C      -46.05250000     -36.83810000     -70.26550000
C      -44.82550000     -36.95440000     -70.85870000
C      -43.74190000     -36.23780000     -70.26120000
C      -43.93930000     -35.59050000     -69.04020000
C      -45.27850000     -35.50720000     -68.48110000
C      -46.33530000     -36.18460000     -69.07820000
H      -46.88920000     -37.21890000     -70.93340000
H      -42.70330000     -36.27120000     -70.67850000
H      -45.51960000     -34.96780000     -67.51340000
H      -47.37010000     -36.10340000     -68.65380000
C      -42.87570000     -34.70020000     -68.50910000
H      -41.89440000     -35.27550000     -68.47100000
H      -43.17670000     -34.45900000     -67.45690000
C      -44.58250000     -37.44020000     -72.25770000
H      -43.84110000     -38.24950000     -72.21270000
H      -45.46080000     -37.78420000     -72.86110000
S      -42.43850000     -33.38240000     -69.71820000
S      -43.96770000     -36.16900000     -73.44610000
C      -43.97650000     -32.32160000     -69.61470000
H      -44.85600000     -32.92590000     -69.71800000
H      -44.01070000     -31.92780000     -68.57330000
C      -45.40330000     -34.95720000     -73.29730000
H      -46.34340000     -35.42890000     -72.79620000
H      -45.69830000     -34.76540000     -74.31850000
C      -45.17900000     -33.71260000     -72.50120000
H      -44.83130000     -33.95800000     -71.46190000
H      -44.32900000     -33.26790000     -72.97120000
C      -43.86200000     -31.35220000     -70.76460000
H      -43.33820000     -31.80360000     -71.62010000
H      -43.19830000     -30.54440000     -70.53070000
C      -45.15130000     -30.70820000     -71.29260000
C      -45.41710000     -29.36070000     -71.11150000
C      -46.20660000     -31.33250000     -71.95370000
H      -44.75990000     -28.62880000     -70.69650000
C      -47.39930000     -30.56800000     -72.11640000
C      -46.37670000     -32.66680000     -72.47440000
C      -47.53820000     -32.82400000     -73.17960000
S      -47.08800000     -28.94410000     -71.55080000
S      -48.55540000     -31.37410000     -73.10720000
H      -47.72460000     -33.69440000     -73.71170000
