40
Properties=species:S:1:pos:R:3 #=T CELL(abcABC):=T 1.889726e+02=T 90.00000=T Traj:=T positionsangstrom=T Step:=T 0=T Bead:=T pbc="F F F"
C      -45.44580000     -37.06890000     -70.10150000
C      -44.35240000     -36.79060000     -70.85500000
C      -43.37990000     -36.00250000     -70.23160000
C      -43.54530000     -35.46010000     -68.97630000
C      -44.73790000     -35.73260000     -68.25890000
C      -45.72080000     -36.44570000     -68.90510000
H      -46.22440000     -37.72920000     -70.53300000
H      -42.40180000     -35.76370000     -70.81840000
H      -44.93970000     -35.42590000     -67.22680000
H      -46.67460000     -36.65480000     -68.36610000
C      -42.48440000     -34.45310000     -68.55110000
H      -41.51460000     -34.90420000     -68.70340000
H      -42.60550000     -34.07040000     -67.53680000
C      -44.17420000     -37.25460000     -72.28430000
H      -43.22250000     -37.84760000     -72.15570000
H      -44.99170000     -37.97720000     -72.56980000
S      -42.38600000     -32.85110000     -69.61300000
S      -43.92100000     -35.91550000     -73.58020000
C      -44.14680000     -32.38630000     -69.71630000
H      -44.74660000     -33.30420000     -70.00500000
H      -44.49710000     -32.12200000     -68.68480000
C      -45.46480000     -34.98430000     -73.53360000
H      -46.00380000     -35.57500000     -72.79650000
H      -45.91260000     -34.81880000     -74.55500000
C      -45.14240000     -33.61100000     -72.79570000
H      -44.81290000     -33.87080000     -71.75840000
H      -44.24300000     -33.19490000     -73.30110000
C      -44.11930000     -31.24200000     -70.71730000
H      -43.54780000     -31.56840000     -71.50780000
H      -43.70080000     -30.40110000     -70.22120000
C      -45.50550000     -30.78240000     -71.14110000
C      -46.12900000     -29.67810000     -70.69370000
C      -46.45980000     -31.49710000     -71.98890000
H      -45.64200000     -28.97710000     -70.08430000
C      -47.74410000     -30.86920000     -72.07710000
C      -46.34700000     -32.65770000     -72.79350000
C      -47.50270000     -32.80420000     -73.53010000
S      -47.72750000     -29.27600000     -71.30940000
S      -48.74770000     -31.63810000     -73.28850000
H      -47.68140000     -33.55290000     -74.23240000
