40
Properties=species:S:1:pos:R:3 #=T CELL(abcABC):=T 1.889726e+02=T 90.00000=T Traj:=T positionsangstrom=T Step:=T 0=T Bead:=T pbc="F F F"
C      -47.07350000     -36.38850000     -70.46290000
C      -45.75950000     -36.58270000     -70.97420000
C      -44.67200000     -36.13040000     -70.24440000
C      -44.76740000     -35.59910000     -68.94270000
C      -46.05580000     -35.45200000     -68.42600000
C      -47.15570000     -35.82480000     -69.17050000
H      -47.92760000     -36.77890000     -71.01890000
H      -43.70660000     -36.19020000     -70.78030000
H      -46.29180000     -34.98850000     -67.41020000
H      -48.15920000     -35.59290000     -68.78900000
C      -43.50020000     -35.16000000     -68.26310000
H      -42.83560000     -36.00740000     -68.21700000
H      -43.54450000     -34.72950000     -67.25910000
C      -45.53710000     -37.19770000     -72.36710000
H      -45.17810000     -38.16410000     -72.20930000
H      -46.53850000     -37.30330000     -72.79930000
S      -42.57880000     -34.02510000     -69.44830000
S      -44.40570000     -36.42870000     -73.58480000
C      -43.76090000     -32.53060000     -69.57940000
H      -44.77150000     -32.86370000     -69.81490000
H      -43.77330000     -31.96750000     -68.64390000
C      -45.38460000     -34.89960000     -73.86800000
H      -46.48160000     -35.11800000     -73.66600000
H      -45.29390000     -34.54130000     -74.91320000
C      -44.99910000     -33.75210000     -72.87050000
H      -45.07070000     -34.17850000     -71.91920000
H      -43.94520000     -33.41150000     -72.94770000
C      -43.26690000     -31.58000000     -70.66570000
H      -42.85120000     -32.13030000     -71.50650000
H      -42.50800000     -30.93950000     -70.22610000
C      -44.41560000     -30.78540000     -71.22520000
C      -44.70740000     -29.54210000     -70.80430000
C      -45.46750000     -31.30360000     -72.07270000
H      -44.24370000     -29.03610000     -70.04790000
C      -46.56600000     -30.40670000     -72.12770000
C      -45.85000000     -32.53460000     -72.75840000
C      -47.08130000     -32.44890000     -73.36720000
S      -46.27910000     -28.89950000     -71.30350000
S      -47.93400000     -30.95010000     -73.02980000
H      -47.53420000     -33.09500000     -74.02490000
