40
Properties=species:S:1:pos:R:3 #=T CELL(abcABC):=T 1.889726e+02=T 90.00000=T Traj:=T positionsangstrom=T Step:=T 0=T Bead:=T pbc="F F F"
C      -46.30990000     -36.33800000     -70.97770000
C      -44.92880000     -36.75560000     -71.10350000
C      -43.99190000     -36.42240000     -70.02990000
C      -44.45570000     -35.60740000     -68.95410000
C      -45.81610000     -35.24630000     -68.88320000
C      -46.74010000     -35.62530000     -69.91230000
H      -47.12570000     -36.64680000     -71.65280000
H      -42.93170000     -36.60510000     -70.00280000
H      -46.17000000     -34.69750000     -68.03350000
H      -47.65900000     -35.11430000     -69.92930000
C      -43.43050000     -34.93440000     -68.06470000
H      -42.55960000     -35.62640000     -67.79790000
H      -43.95170000     -34.50620000     -67.16180000
C      -44.63100000     -37.48960000     -72.39310000
H      -43.69520000     -37.97320000     -72.29470000
H      -45.39540000     -38.24920000     -72.58910000
S      -42.52540000     -33.65110000     -69.01250000
S      -44.60110000     -36.40940000     -73.83230000
C      -43.86810000     -32.48620000     -69.44110000
H      -44.77630000     -33.09020000     -69.60500000
H      -43.93000000     -31.78080000     -68.61940000
C      -45.79030000     -34.95760000     -73.58100000
H      -46.72860000     -35.25370000     -73.13670000
H      -46.00800000     -34.52570000     -74.53370000
C      -45.29510000     -33.75060000     -72.73150000
H      -45.05500000     -34.05890000     -71.70800000
H      -44.29910000     -33.45940000     -73.19900000
C      -43.54520000     -31.83980000     -70.78230000
H      -43.45120000     -32.73840000     -71.51580000
H      -42.57160000     -31.32980000     -70.78280000
C      -44.69410000     -30.97070000     -71.23070000
C      -44.84540000     -29.68610000     -70.77000000
C      -45.87790000     -31.37570000     -71.94790000
H      -44.15150000     -29.10500000     -70.12410000
C      -46.86960000     -30.39260000     -72.07020000
C      -46.23920000     -32.57860000     -72.71120000
C      -47.48890000     -32.55350000     -73.24780000
S      -46.35450000     -28.92540000     -71.24360000
S      -48.23690000     -30.94820000     -73.02840000
H      -47.97080000     -33.40270000     -73.79510000
