40
Properties=species:S:1:pos:R:3 #=T CELL(abcABC):=T 1.889726e+02=T 90.00000=T Traj:=T positionsangstrom=T Step:=T 0=T Bead:=T pbc="F F F"
C      -46.38650000     -36.52560000     -70.80660000
C      -45.08980000     -36.61730000     -71.12830000
C      -44.06930000     -36.19290000     -70.24430000
C      -44.40040000     -35.55030000     -69.05230000
C      -45.76340000     -35.22350000     -68.81750000
C      -46.68070000     -35.71770000     -69.71200000
H      -47.25780000     -36.90350000     -71.47500000
H      -42.99330000     -36.27180000     -70.53250000
H      -46.12840000     -34.52310000     -68.02530000
H      -47.75870000     -35.63160000     -69.45600000
C      -43.32870000     -35.07490000     -68.16580000
H      -42.50670000     -35.73100000     -68.15370000
H      -43.75110000     -34.87180000     -67.19900000
C      -44.56310000     -37.32320000     -72.33970000
H      -43.48330000     -37.62980000     -72.29730000
H      -44.93250000     -38.32340000     -72.68550000
S      -42.38170000     -33.54420000     -68.83890000
S      -44.76780000     -36.40240000     -74.00980000
C      -43.78790000     -32.54710000     -69.47230000
H      -44.66630000     -33.14830000     -69.62360000
H      -44.11230000     -31.79570000     -68.70390000
C      -45.93760000     -34.97910000     -73.69350000
H      -46.76610000     -35.49940000     -73.26700000
H      -46.26610000     -34.54480000     -74.66670000
C      -45.38930000     -33.89640000     -72.80690000
H      -45.11970000     -34.26350000     -71.84300000
H      -44.32420000     -33.62350000     -73.16420000
C      -43.44220000     -31.72300000     -70.72320000
H      -43.02810000     -32.38140000     -71.51440000
H      -42.69640000     -30.97820000     -70.47980000
C      -44.68400000     -30.96010000     -71.17460000
C      -44.89100000     -29.63660000     -70.74360000
C      -45.78070000     -31.41190000     -72.01690000
H      -44.29230000     -29.06660000     -70.03430000
C      -46.81940000     -30.47390000     -72.06380000
C      -46.21030000     -32.62660000     -72.67670000
C      -47.45870000     -32.56880000     -73.18060000
S      -46.42050000     -28.92830000     -71.33600000
S      -48.21560000     -31.03130000     -72.92300000
H      -47.80460000     -33.39890000     -73.80490000
