40
Properties=species:S:1:pos:R:3 #=T CELL(abcABC):=T 1.889726e+02=T 90.00000=T Traj:=T positionsangstrom=T Step:=T 0=T Bead:=T pbc="F F F"
C      -47.99100000     -35.25750000     -70.49710000
C      -48.29390000     -33.91920000     -70.15380000
C      -47.54060000     -33.27250000     -69.17020000
C      -46.54670000     -33.96800000     -68.48230000
C      -46.33240000     -35.35920000     -68.75270000
C      -47.10690000     -36.02280000     -69.77910000
H      -48.40600000     -35.73610000     -71.34500000
H      -47.73690000     -32.18370000     -68.90960000
H      -45.66040000     -35.94930000     -68.13040000
H      -46.72500000     -37.03990000     -69.95460000
C      -45.92310000     -33.16980000     -67.28790000
H      -45.59850000     -33.78210000     -66.48820000
H      -46.67140000     -32.43810000     -66.90360000
C      -49.44660000     -33.13360000     -70.74360000
H      -50.15370000     -33.74910000     -71.26710000
H      -50.04410000     -32.52830000     -69.97600000
S      -44.48350000     -32.08170000     -67.76940000
S      -48.85130000     -31.76290000     -71.88210000
C      -43.72370000     -32.94090000     -69.20680000
H      -42.75390000     -33.40230000     -68.89160000
H      -44.41910000     -33.81140000     -69.39440000
C      -47.65260000     -32.63020000     -72.90480000
H      -47.81340000     -32.22670000     -73.98870000
H      -47.91450000     -33.74090000     -72.96470000
C      -46.16770000     -32.46860000     -72.41220000
H      -45.87130000     -31.37110000     -72.44680000
H      -46.15350000     -32.89100000     -71.37370000
C      -43.57210000     -32.01540000     -70.37750000
H      -42.80980000     -31.28890000     -70.11750000
H      -44.44790000     -31.30740000     -70.52150000
C      -43.01710000     -32.77180000     -71.62730000
C      -41.68960000     -33.10030000     -71.71410000
C      -43.70490000     -33.19130000     -72.77250000
H      -41.05640000     -32.90780000     -70.87490000
C      -42.91660000     -33.92830000     -73.69180000
C      -45.11320000     -33.17960000     -73.24090000
C      -45.29160000     -33.77140000     -74.47780000
S      -41.27980000     -33.98830000     -73.17440000
S      -43.71020000     -34.50800000     -75.11390000
H      -46.20190000     -33.74560000     -75.09740000
