40
Properties=species:S:1:pos:R:3 #=T CELL(abcABC):=T 1.889726e+02=T 90.00000=T Traj:=T positionsangstrom=T Step:=T 0=T Bead:=T pbc="F F F"
C      -48.65360000     -33.16200000     -73.23310000
C      -48.60780000     -34.00430000     -72.13220000
C      -47.75620000     -35.14650000     -72.09880000
C      -46.94130000     -35.41720000     -73.22640000
C      -47.03890000     -34.56650000     -74.32360000
C      -47.84780000     -33.42930000     -74.30660000
H      -49.21530000     -32.26120000     -73.30630000
H      -47.87580000     -35.83870000     -71.25290000
H      -46.59910000     -34.74480000     -75.31430000
H      -47.81430000     -32.73890000     -75.12970000
C      -45.88830000     -36.57410000     -73.38020000
H      -45.19890000     -36.11540000     -74.04860000
H      -46.33360000     -37.49790000     -73.58290000
C      -49.47100000     -33.68550000     -70.85480000
H      -50.05630000     -32.73870000     -70.87900000
H      -50.25250000     -34.45640000     -70.66790000
S      -44.88110000     -36.71550000     -71.87350000
S      -48.61140000     -33.70010000     -69.25720000
C      -43.41100000     -35.52950000     -72.24180000
H      -42.76410000     -35.48760000     -71.35930000
H      -42.89360000     -35.99160000     -73.08350000
C      -47.23630000     -32.52600000     -69.48090000
H      -46.98090000     -32.15530000     -68.52530000
H      -47.60320000     -31.67000000     -70.03690000
C      -46.01900000     -32.93140000     -70.37230000
H      -45.69000000     -34.04260000     -70.23310000
H      -46.30060000     -32.87000000     -71.38190000
C      -43.85230000     -34.12940000     -72.53180000
H      -44.88620000     -33.96890000     -72.34450000
H      -43.82070000     -33.96700000     -73.63640000
C      -43.06550000     -33.09500000     -71.83370000
C      -41.69820000     -32.98990000     -71.93000000
C      -43.58010000     -32.21240000     -70.84360000
H      -41.08970000     -33.57010000     -72.46370000
C      -42.67100000     -31.24460000     -70.36840000
C      -44.81850000     -32.08240000     -70.11430000
C      -44.78360000     -30.96000000     -69.26620000
S      -41.05730000     -31.62470000     -71.08470000
S      -43.26670000     -30.11680000     -69.16090000
H      -45.62550000     -30.77070000     -68.53000000
