40
Properties=species:S:1:pos:R:3 #=T CELL(abcABC):=T 1.889726e+02=T 90.00000=T Traj:=T positionsangstrom=T Step:=T 0=T Bead:=T pbc="F F F"
C      -47.18050000     -36.20830000     -70.22460000
C      -45.98180000     -36.74610000     -70.78060000
C      -44.82090000     -36.65970000     -70.08160000
C      -44.74760000     -35.82700000     -68.92540000
C      -45.91850000     -35.18890000     -68.53560000
C      -47.18850000     -35.40270000     -69.09000000
H      -48.12180000     -36.61220000     -70.58350000
H      -43.93180000     -37.01140000     -70.52840000
H      -45.78870000     -34.48860000     -67.56180000
H      -48.11880000     -35.02190000     -68.63580000
C      -43.46280000     -35.47750000     -68.25530000
H      -42.77820000     -36.34610000     -68.39730000
H      -43.58040000     -35.37020000     -67.14350000
C      -46.16520000     -37.61190000     -72.02760000
H      -45.62500000     -38.50900000     -71.83670000
H      -47.23220000     -37.87540000     -72.24990000
S      -42.55090000     -34.16600000     -69.05120000
S      -45.72820000     -36.66260000     -73.52890000
C      -43.84880000     -32.80770000     -69.26130000
H      -44.78150000     -33.26530000     -69.61770000
H      -44.01820000     -32.18010000     -68.40210000
C      -46.52810000     -34.95080000     -73.31600000
H      -47.37000000     -35.12750000     -72.60850000
H      -46.66770000     -34.63250000     -74.32190000
C      -45.54900000     -33.89410000     -72.64730000
H      -45.49510000     -34.14120000     -71.60250000
H      -44.51850000     -34.13920000     -73.00810000
C      -43.28780000     -31.95150000     -70.45480000
H      -43.02830000     -32.59840000     -71.27770000
H      -42.40750000     -31.45390000     -70.12490000
C      -44.31950000     -30.95960000     -71.02270000
C      -44.35940000     -29.65180000     -70.63970000
C      -45.27180000     -31.24360000     -72.07770000
H      -43.80760000     -29.11970000     -69.86580000
C      -45.81210000     -30.08850000     -72.57390000
C      -45.80510000     -32.41310000     -72.80340000
C      -46.71110000     -32.05510000     -73.70400000
S      -45.36060000     -28.65590000     -71.77550000
S      -47.08710000     -30.32760000     -73.79620000
H      -47.18940000     -32.62950000     -74.51540000
