40
Properties=species:S:1:pos:R:3 #=T CELL(abcABC):=T 1.889726e+02=T 90.00000=T Traj:=T positionsangstrom=T Step:=T 0=T Bead:=T pbc="F F F"
C      -43.87590000     -36.49040000     -71.96420000
C      -45.19020000     -36.67100000     -71.50420000
C      -46.29000000     -36.30910000     -72.25030000
C      -46.11630000     -35.41710000     -73.29630000
C      -44.79310000     -34.95970000     -73.59580000
C      -43.72900000     -35.69170000     -73.08820000
H      -43.01780000     -37.02140000     -71.54750000
H      -47.25380000     -36.39120000     -71.84700000
H      -44.65380000     -34.36760000     -74.53420000
H      -42.70920000     -35.43220000     -73.49230000
C      -47.40780000     -34.82530000     -73.87180000
H      -47.88920000     -35.72250000     -74.28970000
H      -47.25770000     -34.13810000     -74.82090000
C      -45.46750000     -37.45730000     -70.22270000
H      -46.59370000     -37.55620000     -70.13620000
H      -44.93580000     -38.41610000     -70.12180000
S      -48.49490000     -33.86660000     -72.68590000
S      -44.89620000     -36.56750000     -68.66130000
C      -47.44970000     -32.39270000     -72.43860000
H      -46.35970000     -32.59520000     -72.65300000
H      -47.75870000     -31.55070000     -73.18390000
C      -44.26700000     -34.98750000     -69.20080000
H      -43.43440000     -35.20620000     -69.92260000
H      -43.62750000     -34.60940000     -68.32610000
C      -45.21170000     -33.88290000     -69.65730000
H      -46.01060000     -34.28130000     -70.28060000
H      -45.78580000     -33.62210000     -68.79610000
C      -47.56980000     -31.68950000     -71.09260000
H      -47.50180000     -32.48230000     -70.33110000
H      -48.49550000     -31.15490000     -70.99240000
C      -46.37580000     -30.85950000     -71.02180000
C      -46.35740000     -29.49150000     -71.26050000
C      -45.01130000     -31.35820000     -70.72200000
H      -47.19390000     -28.93780000     -71.32990000
C      -44.04170000     -30.38150000     -71.12820000
C      -44.43760000     -32.64740000     -70.22140000
C      -43.06940000     -32.54350000     -70.18030000
S      -44.75470000     -28.82460000     -71.53690000
S      -42.43070000     -31.07880000     -70.96890000
H      -42.30100000     -33.21540000     -69.75160000
