40
Properties=species:S:1:pos:R:3 #=T CELL(abcABC):=T 1.889726e+02=T 90.00000=T Traj:=T positionsangstrom=T Step:=T 0=T Bead:=T pbc="F F F"
C      -47.54380000     -35.62340000     -70.15020000
C      -46.51900000     -36.29660000     -70.77450000
C      -45.34730000     -36.19100000     -70.06320000
C      -45.22490000     -35.46790000     -68.82610000
C      -46.36750000     -34.93730000     -68.26280000
C      -47.62760000     -34.97930000     -68.94440000
H      -48.48160000     -35.61830000     -70.72020000
H      -44.53360000     -36.80810000     -70.41590000
H      -46.26560000     -34.45970000     -67.22960000
H      -48.48990000     -34.45130000     -68.62790000
C      -43.90280000     -35.35170000     -68.02860000
H      -43.51700000     -36.33740000     -67.88200000
H      -44.11160000     -35.13360000     -66.95190000
C      -46.68610000     -37.12260000     -72.02930000
H      -46.33510000     -38.06570000     -71.66070000
H      -47.80820000     -37.17350000     -72.16320000
S      -42.62440000     -34.22960000     -68.74340000
S      -45.62870000     -36.61830000     -73.47230000
C      -43.59200000     -32.92670000     -69.72270000
H      -44.58330000     -33.31170000     -69.71370000
H      -43.46360000     -32.00170000     -69.10240000
C      -46.32870000     -34.87250000     -73.58510000
H      -47.39190000     -34.93140000     -73.42340000
H      -45.99040000     -34.45540000     -74.53700000
C      -45.61800000     -33.95080000     -72.61780000
H      -45.78810000     -34.14820000     -71.62940000
H      -44.62280000     -33.98410000     -72.71360000
C      -43.04200000     -32.71280000     -71.11130000
H      -43.14960000     -33.62480000     -71.65830000
H      -41.94430000     -32.36030000     -71.14530000
C      -43.82530000     -31.51450000     -71.68700000
C      -43.35090000     -30.23360000     -71.53300000
C      -45.12620000     -31.51730000     -72.27390000
H      -42.40420000     -29.93850000     -71.18260000
C      -45.62480000     -30.22590000     -72.46940000
C      -46.01370000     -32.52220000     -72.76920000
C      -47.22630000     -32.05420000     -73.23320000
S      -44.44400000     -28.96490000     -72.03090000
S      -47.19980000     -30.27300000     -73.21710000
H      -48.04730000     -32.61060000     -73.63180000
