40
Properties=species:S:1:pos:R:3 #=T CELL(abcABC):=T 1.889726e+02=T 90.00000=T Traj:=T positionsangstrom=T Step:=T 0=T Bead:=T pbc="F F F"
C      -47.30790000     -36.22060000     -70.26680000
C      -46.12000000     -36.64600000     -70.79740000
C      -44.97610000     -36.42260000     -70.10400000
C      -44.86270000     -35.73940000     -68.90330000
C      -46.09350000     -35.21530000     -68.41860000
C      -47.28370000     -35.49800000     -69.07430000
H      -48.21120000     -36.30960000     -70.93190000
H      -44.11010000     -36.92090000     -70.53270000
H      -46.15040000     -34.59160000     -67.47050000
H      -48.18550000     -34.94280000     -68.80670000
C      -43.55800000     -35.64280000     -68.22850000
H      -43.00760000     -36.54910000     -68.52780000
H      -43.71210000     -35.40110000     -67.20480000
C      -46.16770000     -37.55600000     -71.98120000
H      -45.40370000     -38.38530000     -71.96220000
H      -47.16810000     -37.99230000     -72.13900000
S      -42.44030000     -34.11960000     -68.89110000
S      -45.84960000     -36.65940000     -73.55560000
C      -43.76170000     -33.10730000     -69.43150000
H      -44.52800000     -33.63430000     -69.97610000
H      -44.21370000     -32.47200000     -68.61420000
C      -46.37420000     -34.79600000     -73.32140000
H      -47.41400000     -34.73900000     -73.07320000
H      -46.52890000     -34.55310000     -74.33390000
C      -45.39880000     -33.81750000     -72.57520000
H      -45.41890000     -34.03930000     -71.52600000
H      -44.41800000     -33.90050000     -73.02830000
C      -43.23350000     -32.04170000     -70.46510000
H      -42.60560000     -32.45330000     -71.28180000
H      -42.43090000     -31.36610000     -70.07290000
C      -44.21320000     -31.03890000     -71.09130000
C      -44.08130000     -29.68650000     -70.92070000
C      -45.24970000     -31.29610000     -72.13100000
H      -43.40390000     -29.24370000     -70.16420000
C      -45.87910000     -30.08430000     -72.51070000
C      -45.83630000     -32.40740000     -72.83550000
C      -46.76300000     -32.02170000     -73.73570000
S      -45.29870000     -28.70900000     -71.70880000
S      -47.06730000     -30.29840000     -73.80150000
H      -47.39360000     -32.65500000     -74.41330000
