40
Properties=species:S:1:pos:R:3 #=T CELL(abcABC):=T 1.889726e+02=T 90.00000=T Traj:=T positionsangstrom=T Step:=T 0=T Bead:=T pbc="F F F"
C      -48.06430000     -35.21060000     -70.43510000
C      -48.38870000     -33.92870000     -70.05110000
C      -47.66650000     -33.25650000     -69.07810000
C      -46.59150000     -33.88810000     -68.47070000
C      -46.14900000     -35.18970000     -68.95390000
C      -46.96400000     -35.81680000     -69.91390000
H      -48.70990000     -35.83130000     -71.10660000
H      -47.87290000     -32.25040000     -68.66810000
H      -45.30540000     -35.74120000     -68.49250000
H      -46.67000000     -36.86700000     -70.14570000
C      -45.78580000     -33.28370000     -67.38830000
H      -45.05060000     -34.05200000     -66.98570000
H      -46.34900000     -32.82630000     -66.57250000
C      -49.48280000     -33.23360000     -70.77450000
H      -49.90840000     -33.97260000     -71.42510000
H      -50.23010000     -32.91700000     -70.03700000
S      -44.64700000     -31.95100000     -68.01760000
S      -48.85860000     -31.80330000     -71.78340000
C      -43.60210000     -32.80230000     -69.21780000
H      -42.69440000     -33.21020000     -68.87320000
H      -44.19460000     -33.68740000     -69.50390000
C      -47.57300000     -32.61860000     -72.91350000
H      -47.60530000     -32.27200000     -73.92450000
H      -47.80670000     -33.66010000     -73.03700000
C      -46.19970000     -32.42760000     -72.28510000
H      -46.03180000     -31.32730000     -72.43190000
H      -46.17830000     -32.62190000     -71.28300000
C      -43.41610000     -31.97740000     -70.48810000
H      -42.68280000     -31.22760000     -70.31090000
H      -44.41240000     -31.57310000     -70.80740000
C      -42.89870000     -32.84740000     -71.62030000
C      -41.55100000     -33.19320000     -71.72830000
C      -43.70320000     -33.24280000     -72.69410000
H      -40.81980000     -32.89810000     -71.07330000
C      -42.96400000     -33.95890000     -73.61320000
C      -45.12080000     -33.17280000     -73.06330000
C      -45.27370000     -33.73980000     -74.31820000
S      -41.25080000     -34.11590000     -73.21580000
S      -43.86230000     -34.56540000     -74.99900000
H      -46.13710000     -33.86990000     -74.94700000
