40
Properties=species:S:1:pos:R:3 #=T CELL(abcABC):=T 1.889726e+02=T 90.00000=T Traj:=T positionsangstrom=T Step:=T 0=T Bead:=T pbc="F F F"
C      -47.13840000     -36.17650000     -70.18940000
C      -46.01810000     -36.74720000     -70.71510000
C      -44.79210000     -36.68880000     -70.04120000
C      -44.70690000     -35.89980000     -68.95930000
C      -45.88040000     -35.33430000     -68.38370000
C      -47.09690000     -35.42420000     -69.01030000
H      -47.96560000     -36.14820000     -70.79560000
H      -43.92490000     -37.29000000     -70.32040000
H      -45.65880000     -34.68580000     -67.40320000
H      -48.00060000     -34.98210000     -68.60940000
C      -43.41560000     -35.60540000     -68.28250000
H      -42.72600000     -36.43480000     -68.27600000
H      -43.48040000     -35.38670000     -67.19800000
C      -46.02840000     -37.51340000     -72.03090000
H      -45.32540000     -38.36510000     -71.91540000
H      -47.00300000     -37.99170000     -72.16820000
S      -42.57000000     -34.13380000     -69.16370000
S      -45.39540000     -36.55200000     -73.41610000
C      -43.82880000     -32.84400000     -69.40770000
H      -44.83330000     -33.31260000     -69.28340000
H      -43.79820000     -32.23540000     -68.48240000
C      -46.21300000     -34.87510000     -73.23810000
H      -47.18400000     -34.96430000     -72.74330000
H      -46.52180000     -34.53000000     -74.24040000
C      -45.38360000     -33.79220000     -72.56850000
H      -45.12430000     -33.92830000     -71.43830000
H      -44.31690000     -33.89840000     -72.89720000
C      -43.36880000     -32.02790000     -70.67100000
H      -43.20310000     -32.76220000     -71.46730000
H      -42.42180000     -31.50650000     -70.36020000
C      -44.39060000     -30.96760000     -71.13370000
C      -44.40110000     -29.66740000     -70.70470000
C      -45.48940000     -31.18200000     -72.08400000
H      -43.64360000     -29.14250000     -70.12000000
C      -46.17360000     -30.05530000     -72.53510000
C      -45.94470000     -32.42900000     -72.79490000
C      -46.86160000     -32.08890000     -73.76120000
S      -45.61960000     -28.71400000     -71.58230000
S      -47.14020000     -30.35280000     -73.95710000
H      -47.30770000     -32.69280000     -74.53090000
