40
Properties=species:S:1:pos:R:3 #=T CELL(abcABC):=T 1.889726e+02=T 90.00000=T Traj:=T positionsangstrom=T Step:=T 0=T Bead:=T pbc="F F F"
C      -47.90610000     -35.16950000     -70.47080000
C      -48.34740000     -33.95600000     -69.93960000
C      -47.74530000     -33.39100000     -68.80780000
C      -46.52440000     -33.96110000     -68.33070000
C      -46.18100000     -35.28090000     -68.79580000
C      -46.79990000     -35.82900000     -69.90670000
H      -48.26620000     -35.65430000     -71.44640000
H      -47.98030000     -32.41220000     -68.42360000
H      -45.12510000     -35.57160000     -68.59820000
H      -46.32880000     -36.76200000     -70.29770000
C      -45.62980000     -33.23180000     -67.41610000
H      -45.00170000     -33.87970000     -66.78130000
H      -46.26720000     -32.81930000     -66.62210000
C      -49.49590000     -33.13440000     -70.52750000
H      -50.24350000     -33.74530000     -71.10870000
H      -49.98020000     -32.55520000     -69.75750000
S      -44.77950000     -31.76140000     -68.19720000
S      -48.93470000     -31.85510000     -71.78200000
C      -43.60500000     -32.62150000     -69.40640000
H      -42.57770000     -32.94090000     -68.98820000
H      -44.19570000     -33.44970000     -69.80540000
C      -47.55400000     -32.52350000     -72.75740000
H      -47.53410000     -32.05330000     -73.78250000
H      -47.85010000     -33.57650000     -72.73750000
C      -46.14920000     -32.48500000     -72.18490000
H      -45.78860000     -31.46130000     -72.06380000
H      -46.13670000     -32.82710000     -71.10580000
C      -43.14120000     -31.74380000     -70.61090000
H      -42.19200000     -31.25210000     -70.29670000
H      -43.80750000     -30.99190000     -71.04700000
C      -42.76870000     -32.73560000     -71.75300000
C      -41.43210000     -33.12690000     -71.95300000
C      -43.66180000     -33.32220000     -72.75840000
H      -40.58780000     -32.90980000     -71.42780000
C      -42.97660000     -34.00540000     -73.74460000
C      -45.11070000     -33.18710000     -73.01530000
C      -45.37400000     -33.84880000     -74.20390000
S      -41.30530000     -34.23110000     -73.31370000
S      -44.04720000     -34.73080000     -74.90770000
H      -46.36000000     -34.20120000     -74.51240000
