40
Properties=species:S:1:pos:R:3 #=T CELL(abcABC):=T 1.889726e+02=T 90.00000=T Traj:=T positionsangstrom=T Step:=T 0=T Bead:=T pbc="F F F"
C      -45.04220000     -36.48060000     -68.89250000
C      -43.99990000     -35.63600000     -69.27970000
C      -44.04620000     -34.24560000     -68.91260000
C      -45.10120000     -33.72770000     -68.25740000
C      -46.18390000     -34.57190000     -67.89810000
C      -46.15040000     -35.91740000     -68.25830000
H      -45.01830000     -37.48700000     -69.29100000
H      -43.37150000     -33.50390000     -69.28200000
H      -47.02360000     -34.22530000     -67.29570000
H      -46.91860000     -36.56910000     -67.82940000
C      -45.06730000     -32.24880000     -67.76500000
H      -44.37000000     -31.64900000     -68.36180000
H      -44.54480000     -32.34550000     -66.78880000
C      -42.69460000     -36.16500000     -69.78780000
H      -41.82180000     -35.52820000     -69.65280000
H      -42.43900000     -36.99720000     -69.18310000
S      -46.70790000     -31.44420000     -67.85800000
S      -42.83130000     -36.87740000     -71.46430000
C      -46.76010000     -31.14050000     -69.64140000
H      -47.80510000     -30.80180000     -69.82150000
H      -46.15310000     -30.35470000     -69.90600000
C      -43.34320000     -35.35270000     -72.48360000
H      -43.10600000     -35.53470000     -73.50450000
H      -42.68140000     -34.61110000     -72.03040000
C      -44.74230000     -34.70610000     -72.31950000
H      -45.44310000     -35.53650000     -72.08660000
H      -44.68490000     -34.27010000     -71.31270000
C      -46.48370000     -32.25670000     -70.57850000
H      -47.29870000     -32.98710000     -70.50440000
H      -45.50620000     -32.76380000     -70.36680000
C      -46.31270000     -31.72170000     -72.06920000
C      -46.80490000     -30.50200000     -72.41920000
C      -45.67000000     -32.38720000     -73.20380000
H      -47.20980000     -29.71190000     -71.79950000
C      -45.82790000     -31.65450000     -74.37190000
C      -45.14790000     -33.74790000     -73.42740000
C      -45.07860000     -34.05070000     -74.75830000
S      -46.68010000     -30.12130000     -74.10050000
S      -45.57830000     -32.68500000     -75.77250000
H      -44.80060000     -35.06490000     -75.06140000
