40
Properties=species:S:1:pos:R:3 #=T CELL(abcABC):=T 1.889726e+02=T 90.00000=T Traj:=T positionsangstrom=T Step:=T 0=T Bead:=T pbc="F F F"
C      -44.69580000     -36.54240000     -68.77540000
C      -43.67270000     -35.66520000     -69.11770000
C      -43.63550000     -34.33690000     -68.74390000
C      -44.71170000     -33.90950000     -67.89860000
C      -45.65630000     -34.82680000     -67.41970000
C      -45.68290000     -36.15140000     -67.83800000
H      -44.54540000     -37.58110000     -69.06700000
H      -42.93710000     -33.56770000     -69.24910000
H      -46.29290000     -34.50860000     -66.60990000
H      -46.43860000     -36.89610000     -67.60550000
C      -44.74530000     -32.47220000     -67.46950000
H      -43.79750000     -31.89850000     -67.71750000
H      -44.72300000     -32.39470000     -66.37340000
C      -42.56620000     -36.20630000     -69.99210000
H      -41.80350000     -35.46880000     -70.08630000
H      -42.02560000     -37.08030000     -69.53750000
S      -46.39260000     -31.68460000     -67.85400000
S      -43.11590000     -36.66480000     -71.70590000
C      -46.29470000     -30.97850000     -69.57080000
H      -47.27750000     -30.93890000     -69.89240000
H      -45.86120000     -29.92470000     -69.59400000
C      -43.59250000     -34.94620000     -72.24860000
H      -43.11230000     -34.71660000     -73.20600000
H      -43.17170000     -34.11510000     -71.69070000
C      -45.10080000     -34.68940000     -72.40420000
H      -45.70180000     -35.62170000     -72.60380000
H      -45.38420000     -34.32090000     -71.43780000
C      -45.73200000     -31.83810000     -70.72490000
H      -46.12510000     -32.86350000     -70.56290000
H      -44.63930000     -31.99150000     -70.60080000
C      -46.14560000     -31.43740000     -72.16330000
C      -46.71680000     -30.28530000     -72.55970000
C      -46.06530000     -32.34220000     -73.26990000
H      -46.92930000     -29.43580000     -71.90760000
C      -46.42010000     -31.79810000     -74.49420000
C      -45.52480000     -33.68290000     -73.44370000
C      -45.56850000     -34.09230000     -74.75350000
S      -47.00110000     -30.15730000     -74.38370000
S      -46.14540000     -32.78870000     -75.82470000
H      -45.15060000     -35.00310000     -75.22400000
