40
Properties=species:S:1:pos:R:3 #=T CELL(abcABC):=T 1.889726e+02=T 90.00000=T Traj:=T positionsangstrom=T Step:=T 0=T Bead:=T pbc="F F F"
C      -43.78340000     -36.65590000     -68.93660000
C      -43.20350000     -35.49530000     -69.54920000
C      -43.37010000     -34.20110000     -69.05620000
C      -44.12960000     -34.04630000     -67.84370000
C      -44.82040000     -35.19270000     -67.31030000
C      -44.58560000     -36.49210000     -67.85200000
H      -43.56250000     -37.61030000     -69.48240000
H      -42.74390000     -33.38380000     -69.48400000
H      -45.55770000     -34.92920000     -66.60160000
H      -45.06040000     -37.31210000     -67.27410000
C      -44.18430000     -32.69210000     -67.20070000
H      -43.23340000     -32.13700000     -67.33150000
H      -44.33550000     -32.83100000     -66.15450000
C      -42.35850000     -35.80500000     -70.74940000
H      -41.62160000     -35.03190000     -70.86610000
H      -41.84840000     -36.76410000     -70.49320000
S      -45.65690000     -31.56030000     -67.82210000
S      -43.13780000     -36.20620000     -72.35450000
C      -45.43230000     -31.29200000     -69.57100000
H      -45.85380000     -30.30150000     -69.77770000
H      -44.38940000     -31.23280000     -69.71760000
C      -44.22060000     -34.76220000     -72.78000000
H      -43.86620000     -34.40820000     -73.74910000
H      -44.08730000     -33.92360000     -72.11250000
C      -45.73940000     -35.06540000     -72.73160000
H      -45.98750000     -36.01140000     -73.21230000
H      -46.10210000     -35.23770000     -71.71920000
C      -46.04000000     -32.36340000     -70.50350000
H      -46.95610000     -32.88160000     -70.00240000
H      -45.21550000     -33.05490000     -70.75830000
C      -46.44620000     -31.75690000     -71.80880000
C      -46.62090000     -30.43000000     -71.98650000
C      -46.52410000     -32.50320000     -73.05530000
H      -46.92140000     -29.66450000     -71.28120000
C      -46.95500000     -31.67580000     -74.14350000
C      -46.35450000     -33.90230000     -73.50380000
C      -46.63880000     -34.04200000     -74.86860000
S      -47.19470000     -30.04740000     -73.62600000
S      -47.15030000     -32.56510000     -75.67350000
H      -46.50090000     -34.87800000     -75.53280000
