40
Properties=species:S:1:pos:R:3 #=T CELL(abcABC):=T 1.889726e+02=T 90.00000=T Traj:=T positionsangstrom=T Step:=T 0=T Bead:=T pbc="F F F"
C      -47.94410000     -34.33720000     -74.00150000
C      -48.15780000     -34.66710000     -72.68690000
C      -47.35240000     -35.65730000     -72.09640000
C      -46.41070000     -36.40710000     -72.89210000
C      -46.28210000     -36.08530000     -74.23150000
C      -47.06390000     -35.06260000     -74.80960000
H      -48.66580000     -33.68000000     -74.46470000
H      -47.49430000     -35.92040000     -71.08480000
H      -45.55910000     -36.52410000     -74.93830000
H      -46.89660000     -34.76200000     -75.82560000
C      -45.69400000     -37.56740000     -72.20230000
H      -44.97470000     -38.18070000     -72.73700000
H      -46.53840000     -38.16980000     -71.85950000
C      -49.09170000     -33.78290000     -71.84720000
H      -49.34890000     -32.90410000     -72.39480000
H      -50.01670000     -34.38330000     -71.64030000
S      -44.86710000     -37.05970000     -70.60460000
S      -48.48780000     -33.26020000     -70.21190000
C      -43.83800000     -35.60110000     -70.95650000
H      -42.83930000     -35.85490000     -70.61080000
H      -43.61900000     -35.41860000     -72.03270000
C      -47.24930000     -32.00260000     -70.57810000
H      -47.68420000     -31.13010000     -71.03160000
H      -46.64650000     -32.39190000     -71.44420000
C      -46.31880000     -31.78430000     -69.32490000
H      -46.81920000     -31.15360000     -68.51400000
H      -46.21570000     -32.73590000     -68.86100000
C      -44.29990000     -34.30290000     -70.33020000
H      -44.24540000     -34.42000000     -69.21470000
H      -45.32530000     -34.09490000     -70.64270000
C      -43.54550000     -33.07060000     -70.78160000
C      -42.33430000     -33.07950000     -71.44790000
C      -43.91680000     -31.70490000     -70.46350000
H      -41.76300000     -34.04030000     -71.81100000
C      -42.91020000     -30.81170000     -70.83350000
C      -45.01650000     -31.07750000     -69.76370000
C      -44.90730000     -29.69390000     -69.75700000
S      -41.53600000     -31.47310000     -71.64750000
S      -43.32530000     -29.11930000     -70.46190000
H      -45.62990000     -28.85630000     -69.48240000
