40
Properties=species:S:1:pos:R:3 #=T CELL(abcABC):=T 1.889726e+02=T 90.00000=T Traj:=T positionsangstrom=T Step:=T 0=T Bead:=T pbc="F F F"
C      -48.04470000     -34.26450000     -74.08990000
C      -48.10800000     -34.29190000     -72.66250000
C      -47.41250000     -35.29380000     -71.94320000
C      -46.62690000     -36.18430000     -72.62580000
C      -46.55570000     -36.09780000     -74.05140000
C      -47.23750000     -35.15210000     -74.74440000
H      -48.72480000     -33.65540000     -74.67320000
H      -47.53780000     -35.32110000     -70.90030000
H      -46.04890000     -36.91400000     -74.51080000
H      -47.19650000     -35.34850000     -75.76250000
C      -45.86400000     -37.22860000     -71.87660000
H      -45.15270000     -37.82010000     -72.45900000
H      -46.48710000     -38.03460000     -71.52980000
C      -49.14790000     -33.42770000     -71.95020000
H      -49.37560000     -32.57450000     -72.53930000
H      -50.07610000     -33.95560000     -71.91970000
S      -44.76960000     -36.70330000     -70.40740000
S      -48.81260000     -33.07670000     -70.18680000
C      -43.58130000     -35.49400000     -71.10410000
H      -43.10680000     -35.02860000     -70.16030000
H      -42.76530000     -35.93560000     -71.70080000
C      -47.31270000     -31.98910000     -70.37970000
H      -47.51220000     -30.90010000     -70.35430000
H      -46.93330000     -32.22880000     -71.35540000
C      -46.12920000     -32.26470000     -69.47220000
H      -46.40120000     -32.01480000     -68.43190000
H      -45.77120000     -33.34060000     -69.40840000
C      -44.38030000     -34.33710000     -71.82870000
H      -45.28340000     -34.28420000     -71.23810000
H      -44.59550000     -34.57920000     -72.87150000
C      -43.65360000     -32.99720000     -71.70900000
C      -42.45900000     -32.79800000     -72.40960000
C      -43.83350000     -31.95070000     -70.69530000
H      -41.90470000     -33.54300000     -73.01150000
C      -42.78450000     -31.01070000     -70.71160000
C      -44.88020000     -31.46980000     -69.79840000
C      -44.58670000     -30.40570000     -68.99640000
S      -41.45680000     -31.44450000     -71.82140000
S      -43.07940000     -29.68000000     -69.65870000
H      -45.36380000     -29.84530000     -68.49740000
