40
Properties=species:S:1:pos:R:3 #=T CELL(abcABC):=T 1.889726e+02=T 90.00000=T Traj:=T positionsangstrom=T Step:=T 0=T Bead:=T pbc="F F F"
C      -48.00610000     -34.67750000     -74.21740000
C      -48.10440000     -34.75470000     -72.83970000
C      -47.38580000     -35.69490000     -72.11470000
C      -46.54500000     -36.56390000     -72.74590000
C      -46.34320000     -36.42470000     -74.18960000
C      -47.10100000     -35.49180000     -74.87600000
H      -48.55830000     -33.87840000     -74.75460000
H      -47.47880000     -35.71290000     -71.01980000
H      -45.69170000     -37.13660000     -74.72530000
H      -47.08070000     -35.71480000     -75.97940000
C      -45.80320000     -37.64000000     -71.94650000
H      -45.26780000     -38.35380000     -72.64490000
H      -46.57950000     -38.27630000     -71.45310000
C      -48.92270000     -33.78980000     -72.12200000
H      -49.01040000     -32.84550000     -72.66810000
H      -49.98290000     -34.15950000     -72.03010000
S      -44.76140000     -36.89090000     -70.56540000
S      -48.43630000     -33.37600000     -70.37460000
C      -44.01040000     -35.34920000     -71.26520000
H      -42.99560000     -35.27730000     -70.84560000
H      -43.90510000     -35.46010000     -72.37020000
C      -47.25720000     -31.98510000     -70.54010000
H      -47.78570000     -31.09020000     -70.75250000
H      -46.78760000     -32.29070000     -71.47900000
C      -46.30800000     -31.79330000     -69.36630000
H      -46.82700000     -31.15130000     -68.63530000
H      -46.06690000     -32.76070000     -68.77380000
C      -44.64780000     -34.04570000     -70.99720000
H      -44.95560000     -34.04130000     -69.92530000
H      -45.49460000     -33.99770000     -71.67400000
C      -43.73120000     -32.86380000     -71.19700000
C      -42.44250000     -32.92090000     -71.71250000
C      -43.96600000     -31.60360000     -70.57490000
H      -41.90940000     -33.71820000     -72.10000000
C      -42.88880000     -30.69650000     -70.64620000
C      -45.04350000     -30.98900000     -69.82300000
C      -44.76790000     -29.68970000     -69.40240000
S      -41.51240000     -31.38150000     -71.45430000
S      -43.10540000     -29.14620000     -69.88090000
H      -45.43920000     -29.18480000     -68.72940000
