40
Properties=species:S:1:pos:R:3 #=T CELL(abcABC):=T 1.889726e+02=T 90.00000=T Traj:=T positionsangstrom=T Step:=T 0=T Bead:=T pbc="F F F"
C      -43.77010000     -36.54920000     -69.30910000
C      -42.94630000     -35.51080000     -69.80190000
C      -42.87240000     -34.36660000     -69.04930000
C      -43.65920000     -34.16150000     -67.94290000
C      -44.39670000     -35.25300000     -67.44340000
C      -44.48740000     -36.46250000     -68.10280000
H      -43.70680000     -37.45400000     -69.99030000
H      -42.19440000     -33.60100000     -69.40910000
H      -45.13650000     -34.99670000     -66.62050000
H      -45.31870000     -37.10080000     -67.87670000
C      -43.75690000     -32.85730000     -67.20130000
H      -42.92010000     -32.26470000     -67.42910000
H      -43.88490000     -33.03220000     -66.14850000
C      -42.14250000     -35.70250000     -71.07010000
H      -41.58510000     -34.78010000     -71.19700000
H      -41.46170000     -36.59310000     -71.01010000
S      -45.22510000     -31.87520000     -67.77880000
S      -43.13370000     -35.91580000     -72.59280000
C      -45.27950000     -31.59380000     -69.66320000
H      -45.11900000     -30.46590000     -69.81640000
H      -44.45270000     -32.10930000     -70.17990000
C      -44.21490000     -34.43300000     -72.54690000
H      -44.02760000     -33.89480000     -73.46340000
H      -43.98370000     -33.68120000     -71.79920000
C      -45.73330000     -34.81030000     -72.49570000
H      -46.03510000     -35.81790000     -72.71120000
H      -45.95800000     -34.70910000     -71.43770000
C      -46.58710000     -32.15920000     -70.29100000
H      -47.46280000     -31.84340000     -69.66350000
H      -46.57860000     -33.27550000     -70.26500000
C      -46.72130000     -31.68660000     -71.74430000
C      -46.96320000     -30.38880000     -71.96310000
C      -46.69240000     -32.44540000     -72.96300000
H      -47.01570000     -29.63200000     -71.21660000
C      -47.23060000     -31.71280000     -74.00870000
C      -46.48230000     -33.77980000     -73.33760000
C      -47.00330000     -34.10090000     -74.52860000
S      -47.30870000     -30.01630000     -73.66530000
S      -47.64600000     -32.76240000     -75.44770000
H      -47.04740000     -35.03790000     -74.90430000
