40
Properties=species:S:1:pos:R:3 #=T CELL(abcABC):=T 1.889726e+02=T 90.00000=T Traj:=T positionsangstrom=T Step:=T 0=T Bead:=T pbc="F F F"
C      -48.00150000     -34.21540000     -73.96970000
C      -48.28090000     -34.66670000     -72.70530000
C      -47.44760000     -35.69780000     -72.07970000
C      -46.38890000     -36.27010000     -72.75250000
C      -46.22200000     -35.85320000     -74.10240000
C      -46.96680000     -34.86730000     -74.62880000
H      -48.43620000     -33.26970000     -74.37660000
H      -47.57640000     -35.85530000     -71.00560000
H      -45.47330000     -36.42230000     -74.71450000
H      -46.63170000     -34.67030000     -75.69200000
C      -45.58170000     -37.38530000     -72.16340000
H      -44.72280000     -37.55120000     -72.84380000
H      -46.12050000     -38.36610000     -72.13370000
C      -49.23450000     -33.89010000     -71.82550000
H      -49.59890000     -32.95670000     -72.30970000
H      -50.11170000     -34.50030000     -71.62880000
S      -44.88550000     -36.98360000     -70.53910000
S      -48.53660000     -33.31640000     -70.19800000
C      -43.72970000     -35.57720000     -71.04780000
H      -42.77010000     -35.90510000     -70.63630000
H      -43.65140000     -35.45540000     -72.09160000
C      -47.13380000     -32.17450000     -70.76970000
H      -47.59870000     -31.23530000     -71.19810000
H      -46.50600000     -32.64390000     -71.55460000
C      -46.37400000     -31.82420000     -69.41580000
H      -47.02380000     -31.14350000     -68.91190000
H      -46.22250000     -32.73560000     -68.77430000
C      -44.18100000     -34.34680000     -70.23100000
H      -44.08150000     -34.44000000     -69.12850000
H      -45.25780000     -34.26760000     -70.48570000
C      -43.50420000     -33.10020000     -70.69670000
C      -42.26420000     -33.16210000     -71.29140000
C      -43.92380000     -31.69980000     -70.47020000
H      -41.61430000     -34.11870000     -71.51110000
C      -42.90500000     -30.82040000     -70.92410000
C      -45.02860000     -31.06720000     -69.79240000
C      -44.81320000     -29.68700000     -69.71540000
S      -41.61190000     -31.61720000     -71.81780000
S      -43.35830000     -29.14580000     -70.54310000
H      -45.47210000     -28.94750000     -69.15840000
