40
Properties=species:S:1:pos:R:3 #=T CELL(abcABC):=T 1.889726e+02=T 90.00000=T Traj:=T positionsangstrom=T Step:=T 0=T Bead:=T pbc="F F F"
C      -43.41770000     -36.81260000     -69.28220000
C      -42.96450000     -36.12350000     -70.36690000
C      -42.55830000     -34.77910000     -70.21920000
C      -42.60030000     -34.19190000     -68.97070000
C      -43.15230000     -34.87200000     -67.84540000
C      -43.44770000     -36.24630000     -68.02130000
H      -43.64090000     -37.88230000     -69.45890000
H      -42.18800000     -34.19620000     -71.05830000
H      -43.18470000     -34.35050000     -66.89060000
H      -43.96570000     -36.63560000     -67.16500000
C      -42.20640000     -32.65320000     -68.82550000
H      -41.79920000     -32.34200000     -69.80080000
H      -41.42790000     -32.44510000     -68.13640000
C      -42.85650000     -36.80420000     -71.64810000
H      -42.17770000     -36.27530000     -72.35140000
H      -42.39680000     -37.79690000     -71.58540000
S      -43.61050000     -31.47430000     -68.56470000
S      -44.49690000     -37.08760000     -72.41400000
C      -44.55210000     -31.41840000     -70.18620000
H      -44.67350000     -30.39990000     -70.58900000
H      -43.97760000     -31.93060000     -71.03950000
C      -44.98210000     -35.40640000     -73.26140000
H      -45.68330000     -35.57440000     -74.10890000
H      -44.08260000     -34.85340000     -73.59670000
C      -45.72330000     -34.36560000     -72.36310000
H      -46.35300000     -34.84870000     -71.57700000
H      -44.85560000     -33.87760000     -71.79430000
C      -45.95730000     -32.02320000     -70.03870000
H      -46.35500000     -31.62560000     -69.06050000
H      -45.95560000     -33.04100000     -69.90210000
C      -46.92610000     -31.54190000     -71.10910000
C      -47.69310000     -30.42700000     -70.88670000
C      -47.03340000     -32.05060000     -72.45780000
H      -47.94420000     -30.01020000     -69.89120000
C      -47.85380000     -31.29970000     -73.29020000
C      -46.56470000     -33.29750000     -73.07940000
C      -47.08190000     -33.42410000     -74.32790000
S      -48.62540000     -30.06950000     -72.35040000
S      -48.04330000     -31.96750000     -74.88530000
H      -46.83270000     -34.09660000     -75.16240000
