40
Properties=species:S:1:pos:R:3 #=T CELL(abcABC):=T 1.889726e+02=T 90.00000=T Traj:=T positionsangstrom=T Step:=T 0=T Bead:=T pbc="F F F"
C      -47.58970000     -33.78500000     -73.39440000
C      -48.15500000     -34.28140000     -72.22950000
C      -47.70450000     -35.53440000     -71.63870000
C      -46.72310000     -36.21890000     -72.27090000
C      -46.19540000     -35.70090000     -73.46030000
C      -46.58090000     -34.49700000     -73.97770000
H      -47.86750000     -32.83450000     -73.77560000
H      -48.11060000     -35.92570000     -70.72430000
H      -45.26390000     -36.08080000     -73.99150000
H      -46.09590000     -34.07050000     -74.86850000
C      -46.08730000     -37.47560000     -71.72930000
H      -45.55120000     -37.92980000     -72.49060000
H      -46.82350000     -38.18820000     -71.39500000
C      -49.27740000     -33.59930000     -71.52490000
H      -49.80230000     -32.78010000     -72.15080000
H      -50.00400000     -34.35100000     -71.20410000
S      -44.89160000     -37.23860000     -70.32000000
S      -48.65720000     -32.99030000     -69.87220000
C      -43.76070000     -35.84410000     -70.91630000
H      -42.75230000     -36.01980000     -70.55770000
H      -43.59750000     -35.94590000     -72.00450000
C      -47.44350000     -31.72680000     -70.41960000
H      -47.94280000     -30.71220000     -70.36010000
H      -47.27220000     -32.01200000     -71.50160000
C      -46.15370000     -31.73450000     -69.57490000
H      -46.24130000     -31.21860000     -68.67340000
H      -45.87930000     -32.80880000     -69.29010000
C      -44.21740000     -34.46790000     -70.40220000
H      -44.33460000     -34.60750000     -69.34330000
H      -45.15890000     -34.23520000     -70.98390000
C      -43.31500000     -33.30450000     -70.82220000
C      -42.09870000     -33.34180000     -71.50120000
C      -43.80050000     -31.89780000     -70.88710000
H      -41.70870000     -34.33080000     -71.66800000
C      -42.85370000     -30.99360000     -71.36170000
C      -44.99350000     -31.24910000     -70.48610000
C      -44.90140000     -29.86790000     -70.75640000
S      -41.41170000     -31.79750000     -71.91330000
S      -43.44850000     -29.37620000     -71.54220000
H      -45.48330000     -28.97520000     -70.32150000
