40
Properties=species:S:1:pos:R:3 #=T CELL(abcABC):=T 1.889726e+02=T 90.00000=T Traj:=T positionsangstrom=T Step:=T 0=T Bead:=T pbc="F F F"
C      -43.40540000     -36.74520000     -69.32230000
C      -42.93460000     -36.09170000     -70.45340000
C      -42.40080000     -34.78490000     -70.34260000
C      -42.38050000     -34.08800000     -69.12630000
C      -43.04080000     -34.71540000     -68.01400000
C      -43.53020000     -36.07340000     -68.08860000
H      -43.95400000     -37.75340000     -69.55550000
H      -42.13620000     -34.27700000     -71.20940000
H      -43.12460000     -34.04090000     -67.12720000
H      -43.85430000     -36.60430000     -67.12860000
C      -42.07130000     -32.60230000     -69.12220000
H      -41.98210000     -32.37310000     -70.17110000
H      -41.26350000     -32.33220000     -68.37210000
C      -42.94220000     -36.78080000     -71.78390000
H      -42.36190000     -36.27050000     -72.49420000
H      -42.76000000     -37.87980000     -71.68910000
S      -43.62430000     -31.69850000     -68.52760000
S      -44.72530000     -36.96240000     -72.37890000
C      -44.61220000     -31.51070000     -70.07250000
H      -44.64860000     -30.42220000     -70.27850000
H      -44.09900000     -32.08180000     -70.76940000
C      -45.14730000     -35.38530000     -73.24750000
H      -45.78770000     -35.71230000     -74.05430000
H      -44.34550000     -35.05350000     -73.81890000
C      -45.85360000     -34.44160000     -72.29350000
H      -46.68930000     -35.02900000     -71.82860000
H      -45.33800000     -34.14760000     -71.39360000
C      -46.06410000     -32.02830000     -69.89240000
H      -46.46950000     -31.74160000     -68.95660000
H      -46.05430000     -33.08470000     -69.92260000
C      -46.92220000     -31.53540000     -71.01650000
C      -47.60830000     -30.36270000     -70.92420000
C      -47.08230000     -32.13110000     -72.32160000
H      -47.78610000     -29.84460000     -69.99640000
C      -48.01070000     -31.47070000     -73.13180000
C      -46.59090000     -33.33120000     -72.94760000
C      -46.96100000     -33.40410000     -74.25840000
S      -48.43120000     -29.94390000     -72.41650000
S      -47.94110000     -32.07250000     -74.80250000
H      -46.71650000     -34.07620000     -75.09020000
