40
Properties=species:S:1:pos:R:3 #=T CELL(abcABC):=T 1.889726e+02=T 90.00000=T Traj:=T positionsangstrom=T Step:=T 0=T Bead:=T pbc="F F F"
C      -48.85240000     -32.64960000     -70.11300000
C      -48.40520000     -33.79630000     -70.78700000
C      -47.71000000     -34.84550000     -70.06460000
C      -47.34230000     -34.59750000     -68.75250000
C      -47.67300000     -33.38490000     -68.14170000
C      -48.42170000     -32.42740000     -68.81220000
H      -49.64210000     -32.00750000     -70.44760000
H      -47.28580000     -35.60130000     -70.71850000
H      -47.42160000     -33.11740000     -67.13580000
H      -48.64260000     -31.46880000     -68.35750000
C      -46.46560000     -35.56530000     -67.97430000
H      -46.83930000     -36.52660000     -67.67970000
H      -46.11260000     -35.05430000     -67.01090000
C      -48.94100000     -33.99770000     -72.27290000
H      -49.94760000     -34.46840000     -72.29600000
H      -49.08110000     -33.04360000     -72.74540000
S      -45.06150000     -36.05560000     -69.11300000
S      -48.06040000     -35.13110000     -73.46430000
C      -44.26210000     -34.45040000     -69.49640000
H      -45.07610000     -33.82570000     -69.78770000
H      -43.78680000     -33.93260000     -68.61550000
C      -46.50540000     -34.10000000     -73.98650000
H      -46.96290000     -33.27170000     -74.43870000
H      -46.04410000     -34.51290000     -74.84320000
C      -45.43880000     -33.93510000     -72.91090000
H      -45.83310000     -34.04590000     -71.87450000
H      -44.80590000     -34.80450000     -72.93040000
C      -43.19750000     -34.71370000     -70.57790000
H      -43.50570000     -35.38860000     -71.41350000
H      -42.18440000     -35.03540000     -70.07770000
C      -42.79730000     -33.24490000     -71.17580000
C      -41.70030000     -32.63520000     -70.65700000
C      -43.39780000     -32.47510000     -72.19640000
H      -40.95120000     -33.01870000     -69.97280000
C      -42.70380000     -31.30120000     -72.48250000
C      -44.58870000     -32.64050000     -72.97580000
C      -44.80080000     -31.51960000     -73.83540000
S      -41.32280000     -31.11490000     -71.43900000
S      -43.46530000     -30.39260000     -73.75460000
H      -45.52800000     -31.42870000     -74.62450000
