40
Properties=species:S:1:pos:R:3 #=T CELL(abcABC):=T 1.889726e+02=T 90.00000=T Traj:=T positionsangstrom=T Step:=T 0=T Bead:=T pbc="F F F"
C      -42.31040000     -36.06890000     -70.34620000
C      -42.63790000     -35.38200000     -71.53650000
C      -43.82160000     -35.69460000     -72.20750000
C      -44.66400000     -36.79960000     -71.84550000
C      -44.25700000     -37.48370000     -70.70900000
C      -43.12260000     -37.10640000     -69.95160000
H      -41.43510000     -35.84150000     -69.74660000
H      -44.11250000     -35.11410000     -73.07590000
H      -44.73340000     -38.40200000     -70.46810000
H      -42.86200000     -37.73360000     -69.10230000
C      -45.82340000     -37.22780000     -72.68040000
H      -45.85200000     -38.34200000     -72.78440000
H      -45.82330000     -36.77820000     -73.62000000
C      -41.73560000     -34.30910000     -72.14400000
H      -40.78010000     -34.72620000     -72.26420000
H      -42.15380000     -33.94910000     -73.09420000
S      -47.41120000     -36.75930000     -71.87030000
S      -41.28490000     -32.82380000     -71.16980000
C      -47.44540000     -34.86010000     -72.10930000
H      -46.89730000     -34.55340000     -73.03480000
H      -48.56610000     -34.59080000     -71.97910000
C      -42.62170000     -31.59370000     -71.38940000
H      -42.49980000     -31.23050000     -72.39000000
H      -42.48110000     -30.77350000     -70.68210000
C      -43.97220000     -32.22270000     -71.16860000
H      -44.11200000     -32.97720000     -71.93910000
H      -44.10940000     -32.74100000     -70.17670000
C      -46.82600000     -34.17930000     -70.87560000
H      -45.69790000     -34.15640000     -71.10860000
H      -47.13530000     -34.61720000     -69.95190000
C      -47.21350000     -32.69120000     -70.81540000
C      -48.54390000     -32.38460000     -70.56680000
C      -46.54800000     -31.50660000     -71.11610000
H      -49.34280000     -32.99080000     -70.27750000
C      -47.30650000     -30.38050000     -71.09630000
C      -45.13440000     -31.13900000     -71.23010000
C      -44.96240000     -29.85420000     -71.58040000
S      -48.97870000     -30.69600000     -70.58690000
S      -46.42450000     -28.92930000     -71.44200000
H      -44.04440000     -29.40430000     -71.87110000
