40
Properties=species:S:1:pos:R:3 #=T CELL(abcABC):=T 1.889726e+02=T 90.00000=T Traj:=T positionsangstrom=T Step:=T 0=T Bead:=T pbc="F F F"
C      -48.45560000     -32.62040000     -70.56570000
C      -48.57980000     -33.89610000     -71.01180000
C      -48.11560000     -34.99550000     -70.22670000
C      -47.38770000     -34.75520000     -69.05290000
C      -47.13210000     -33.40590000     -68.70780000
C      -47.68030000     -32.35430000     -69.43340000
H      -48.90330000     -31.87480000     -71.18150000
H      -48.27760000     -36.01430000     -70.58000000
H      -46.61300000     -33.18520000     -67.71950000
H      -47.62350000     -31.31060000     -69.05350000
C      -46.61130000     -35.80790000     -68.29470000
H      -47.28780000     -36.70230000     -68.26630000
H      -46.33690000     -35.49710000     -67.29000000
C      -49.25940000     -34.27490000     -72.28010000
H      -49.91410000     -35.18400000     -72.09810000
H      -49.98510000     -33.53740000     -72.64290000
S      -44.99500000     -36.30840000     -69.05860000
S      -48.09880000     -34.77810000     -73.62230000
C      -44.08240000     -34.65690000     -69.42750000
H      -44.82490000     -33.88140000     -69.58640000
H      -43.53540000     -34.43060000     -68.59140000
C      -46.80030000     -33.44430000     -73.67000000
H      -47.26030000     -32.47900000     -73.60120000
H      -46.53590000     -33.54920000     -74.79840000
C      -45.65980000     -33.67790000     -72.71130000
H      -46.00080000     -33.68390000     -71.70390000
H      -45.22740000     -34.69280000     -72.91460000
C      -43.20350000     -34.72650000     -70.63240000
H      -43.68270000     -35.22190000     -71.51990000
H      -42.33270000     -35.38830000     -70.46010000
C      -42.71130000     -33.36080000     -71.05070000
C      -41.65240000     -32.68600000     -70.44600000
C      -43.31130000     -32.57450000     -72.12520000
H      -40.97840000     -33.07550000     -69.68670000
C      -42.78760000     -31.32710000     -72.23530000
C      -44.56230000     -32.69860000     -72.89340000
C      -44.77270000     -31.59850000     -73.69920000
S      -41.48940000     -31.02810000     -71.10290000
S      -43.45600000     -30.34630000     -73.47820000
H      -45.44620000     -31.34040000     -74.55070000
