40
Properties=species:S:1:pos:R:3 #=T CELL(abcABC):=T 1.889726e+02=T 90.00000=T Traj:=T positionsangstrom=T Step:=T 0=T Bead:=T pbc="F F F"
C      -49.67810000     -33.18100000     -70.69760000
C      -49.04770000     -34.30740000     -71.20300000
C      -48.14450000     -35.03500000     -70.36960000
C      -47.72680000     -34.53740000     -69.12390000
C      -48.43440000     -33.42620000     -68.64780000
C      -49.33210000     -32.68990000     -69.39710000
H      -50.33460000     -32.51540000     -71.30310000
H      -47.78060000     -36.05780000     -70.66600000
H      -48.19960000     -33.05420000     -67.62520000
H      -49.78540000     -31.76140000     -69.06380000
C      -46.66680000     -35.17750000     -68.26780000
H      -47.21260000     -35.86580000     -67.68260000
H      -46.21740000     -34.52880000     -67.51800000
C      -49.26330000     -34.74620000     -72.71310000
H      -49.59800000     -35.78110000     -72.73940000
H      -50.02880000     -34.23310000     -73.22640000
S      -45.26470000     -35.97820000     -69.14850000
S      -47.66180000     -34.71320000     -73.68620000
C      -44.21680000     -34.52340000     -69.49170000
H      -44.88570000     -33.70180000     -69.76490000
H      -43.64260000     -34.20220000     -68.61440000
C      -46.79820000     -32.96960000     -73.33640000
H      -47.41970000     -32.21410000     -72.82060000
H      -46.56470000     -32.54830000     -74.29200000
C      -45.52100000     -33.28070000     -72.66270000
H      -45.75420000     -33.41390000     -71.62680000
H      -45.09990000     -34.25890000     -72.89020000
C      -43.27180000     -34.82010000     -70.63060000
H      -43.79600000     -35.27440000     -71.49090000
H      -42.53190000     -35.47070000     -70.23970000
C      -42.53350000     -33.50390000     -71.04520000
C      -41.21750000     -33.21000000     -70.82700000
C      -43.15810000     -32.52920000     -71.86740000
H      -40.47110000     -33.84620000     -70.31210000
C      -42.40350000     -31.40650000     -71.94300000
C      -44.36150000     -32.36030000     -72.65190000
C      -44.33430000     -31.18420000     -73.38940000
S      -40.71400000     -31.65650000     -71.50250000
S      -43.02850000     -30.15160000     -73.01320000
H      -45.17390000     -30.77150000     -73.92800000
