40
Properties=species:S:1:pos:R:3 #=T CELL(abcABC):=T 1.889726e+02=T 90.00000=T Traj:=T positionsangstrom=T Step:=T 0=T Bead:=T pbc="F F F"
C      -48.65910000     -32.55930000     -70.87670000
C      -48.54550000     -33.88720000     -71.31270000
C      -48.00500000     -34.84710000     -70.40580000
C      -47.41590000     -34.53170000     -69.18200000
C      -47.59930000     -33.19500000     -68.77280000
C      -48.23150000     -32.22800000     -69.57310000
H      -49.01610000     -31.81310000     -71.56450000
H      -47.91180000     -35.85190000     -70.77720000
H      -47.08970000     -32.92570000     -67.85480000
H      -48.18170000     -31.18250000     -69.29650000
C      -46.65810000     -35.45190000     -68.28200000
H      -47.20890000     -36.32110000     -67.89060000
H      -46.30910000     -34.77760000     -67.47680000
C      -49.09450000     -34.29950000     -72.63200000
H      -49.73000000     -35.19480000     -72.59420000
H      -49.83830000     -33.56400000     -73.07070000
S      -45.15560000     -36.27880000     -69.08890000
S      -47.76420000     -34.87930000     -73.81110000
C      -44.49810000     -34.65840000     -69.65840000
H      -45.33490000     -34.05340000     -70.08740000
H      -44.01080000     -34.13230000     -68.87320000
C      -46.64070000     -33.46860000     -73.79070000
H      -47.25890000     -32.53270000     -73.75260000
H      -46.16590000     -33.33350000     -74.78370000
C      -45.59440000     -33.55560000     -72.63090000
H      -46.28160000     -33.78210000     -71.80770000
H      -45.08610000     -34.51060000     -72.79720000
C      -43.32700000     -34.96490000     -70.71970000
H      -43.72700000     -35.40840000     -71.61950000
H      -42.63850000     -35.69080000     -70.26540000
C      -42.72610000     -33.55860000     -71.10040000
C      -41.47490000     -33.18050000     -70.68690000
C      -43.40460000     -32.52470000     -71.83250000
H      -40.79860000     -33.73520000     -70.12900000
C      -42.64590000     -31.37920000     -71.99060000
C      -44.69190000     -32.40360000     -72.48540000
C      -44.85890000     -31.20250000     -73.13320000
S      -41.10490000     -31.54590000     -71.21170000
S      -43.47630000     -30.16080000     -72.86060000
H      -45.73630000     -30.88430000     -73.64670000
