40
Properties=species:S:1:pos:R:3 #=T CELL(abcABC):=T 1.889726e+02=T 90.00000=T Traj:=T positionsangstrom=T Step:=T 0=T Bead:=T pbc="F F F"
C      -48.29840000     -32.65450000     -70.85290000
C      -48.43720000     -34.03690000     -71.13720000
C      -48.02590000     -34.97340000     -70.23540000
C      -47.52120000     -34.57270000     -68.99450000
C      -47.20410000     -33.24440000     -68.81100000
C      -47.68770000     -32.28290000     -69.68070000
H      -48.87900000     -32.00820000     -71.53950000
H      -48.15310000     -36.04900000     -70.38940000
H      -46.80470000     -32.96450000     -67.88840000
H      -47.58520000     -31.26180000     -69.36710000
C      -46.87700000     -35.69550000     -68.18770000
H      -47.43730000     -36.61880000     -68.17380000
H      -46.60140000     -35.34260000     -67.18150000
C      -49.10530000     -34.47300000     -72.41760000
H      -49.73910000     -35.32080000     -72.32220000
H      -49.72160000     -33.62530000     -72.80480000
S      -45.34730000     -36.32450000     -69.12870000
S      -47.90980000     -34.86870000     -73.78450000
C      -44.25690000     -34.78350000     -69.31680000
H      -44.92970000     -33.95590000     -69.29940000
H      -43.66540000     -34.61340000     -68.43910000
C      -46.77890000     -33.31280000     -73.83350000
H      -47.50130000     -32.51100000     -73.63670000
H      -46.35280000     -33.38560000     -74.78720000
C      -45.64980000     -33.50890000     -72.82770000
H      -45.86980000     -33.74610000     -71.73930000
H      -45.08280000     -34.38040000     -73.19660000
C      -43.36200000     -34.80780000     -70.62700000
H      -43.95000000     -35.11370000     -71.51600000
H      -42.54380000     -35.52930000     -70.43930000
C      -42.81630000     -33.44090000     -71.02200000
C      -41.61430000     -33.00940000     -70.55540000
C      -43.41240000     -32.50240000     -71.95090000
H      -41.00350000     -33.53330000     -69.82920000
C      -42.65390000     -31.34650000     -72.12960000
C      -44.69500000     -32.37700000     -72.67980000
C      -44.77090000     -31.18540000     -73.33940000
S      -41.16380000     -31.40240000     -71.21890000
S      -43.44640000     -30.11770000     -73.07320000
H      -45.62430000     -30.84400000     -73.89570000
