40
Properties=species:S:1:pos:R:3 #=T CELL(abcABC):=T 1.889726e+02=T 90.00000=T Traj:=T positionsangstrom=T Step:=T 0=T Bead:=T pbc="F F F"
C      -46.19820000     -34.64830000     -74.77160000
C      -47.16500000     -34.93600000     -73.78730000
C      -47.96870000     -33.92330000     -73.23620000
C      -47.71910000     -32.56350000     -73.68090000
C      -46.71680000     -32.27140000     -74.62250000
C      -46.02530000     -33.35740000     -75.19510000
H      -45.62200000     -35.48630000     -75.14660000
H      -48.69130000     -34.18320000     -72.42760000
H      -46.57570000     -31.26220000     -74.98010000
H      -45.17540000     -33.10770000     -75.87530000
C      -48.52950000     -31.37270000     -73.14930000
H      -49.57080000     -31.69670000     -73.02190000
H      -48.45270000     -30.62930000     -73.93150000
C      -47.31280000     -36.38280000     -73.46410000
H      -48.33750000     -36.79640000     -73.68020000
H      -46.61570000     -36.97580000     -74.09570000
S      -47.96590000     -30.72850000     -71.48890000
S      -46.99650000     -36.87040000     -71.69950000
C      -46.15270000     -31.16390000     -71.36280000
H      -45.97900000     -31.91290000     -72.17480000
H      -45.60960000     -30.23220000     -71.54760000
C      -45.26160000     -36.40810000     -71.35300000
H      -44.63070000     -36.51200000     -72.24540000
H      -44.95440000     -37.13520000     -70.60420000
C      -45.20330000     -34.95770000     -70.81190000
H      -45.63700000     -34.30730000     -71.58630000
H      -46.02520000     -34.97900000     -70.09820000
C      -45.99090000     -31.63500000     -69.90760000
H      -46.44060000     -32.57180000     -69.74670000
H      -46.53140000     -30.84910000     -69.33250000
C      -44.57600000     -31.88350000     -69.49140000
C      -43.83230000     -30.83690000     -68.97890000
C      -43.73880000     -33.04260000     -69.63000000
H      -44.02530000     -29.80230000     -68.71050000
C      -42.41770000     -32.83410000     -69.18720000
C      -43.90420000     -34.38900000     -70.22560000
C      -42.75890000     -35.12120000     -70.13060000
S      -42.13590000     -31.20660000     -68.64160000
S      -41.40480000     -34.28400000     -69.25530000
H      -42.54160000     -36.12510000     -70.49850000
