40
Properties=species:S:1:pos:R:3 #=T CELL(abcABC):=T 1.889726e+02=T 90.00000=T Traj:=T positionsangstrom=T Step:=T 0=T Bead:=T pbc="F F F"
C      -45.75060000     -34.77210000     -74.51700000
C      -47.02540000     -34.92400000     -73.82680000
C      -47.76060000     -33.75290000     -73.48270000
C      -47.27970000     -32.49380000     -73.85450000
C      -46.01240000     -32.33020000     -74.49040000
C      -45.35650000     -33.47780000     -74.87520000
H      -45.10640000     -35.53570000     -74.90820000
H      -48.73440000     -33.84190000     -73.05950000
H      -45.62410000     -31.37640000     -74.81930000
H      -44.37460000     -33.41870000     -75.33230000
C      -48.20050000     -31.38950000     -73.39520000
H      -49.21450000     -31.78980000     -73.52700000
H      -48.02900000     -30.44170000     -73.97230000
C      -47.58700000     -36.26300000     -73.44050000
H      -48.59990000     -36.34950000     -73.70650000
H      -47.10300000     -37.13610000     -73.97320000
S      -48.09620000     -31.07600000     -71.56450000
S      -47.44040000     -36.62020000     -71.60390000
C      -46.20510000     -31.26190000     -71.32690000
H      -45.97530000     -32.16770000     -71.89750000
H      -45.68170000     -30.41810000     -71.73540000
C      -45.60270000     -36.18030000     -71.10980000
H      -45.08900000     -36.24070000     -72.11800000
H      -45.41300000     -36.99440000     -70.48770000
C      -45.61270000     -34.75330000     -70.48900000
H      -46.06430000     -34.00160000     -71.26260000
H      -46.37260000     -34.82890000     -69.65600000
C      -45.90250000     -31.46460000     -69.84900000
H      -46.56500000     -32.30850000     -69.51450000
H      -46.16840000     -30.52420000     -69.29830000
C      -44.46330000     -31.70600000     -69.57620000
C      -43.58730000     -30.75310000     -69.08120000
C      -43.78730000     -32.93630000     -69.74730000
H      -43.88440000     -29.71670000     -68.85870000
C      -42.46970000     -32.89560000     -69.28100000
C      -44.12400000     -34.27460000     -70.13800000
C      -43.15000000     -35.21220000     -69.98050000
S      -41.94280000     -31.29810000     -68.70720000
S      -41.62710000     -34.46500000     -69.45000000
H      -43.22380000     -36.26720000     -70.18650000
