40
Properties=species:S:1:pos:R:3 #=T CELL(abcABC):=T 1.889726e+02=T 90.00000=T Traj:=T positionsangstrom=T Step:=T 0=T Bead:=T pbc="F F F"
C      -45.98180000     -34.64560000     -74.52880000
C      -47.18730000     -34.96020000     -73.87070000
C      -48.06840000     -33.87750000     -73.54840000
C      -47.77060000     -32.56050000     -73.86190000
C      -46.55240000     -32.24590000     -74.56390000
C      -45.70540000     -33.26720000     -74.94890000
H      -45.23300000     -35.31210000     -74.91270000
H      -49.10440000     -34.13140000     -73.09740000
H      -46.29380000     -31.17480000     -74.84550000
H      -44.79560000     -33.06050000     -75.48060000
C      -48.65480000     -31.49080000     -73.19180000
H      -49.64380000     -31.93660000     -72.93790000
H      -48.77050000     -30.58810000     -73.80320000
C      -47.58820000     -36.31120000     -73.40090000
H      -48.71270000     -36.33040000     -73.44700000
H      -47.18690000     -37.04110000     -74.01240000
S      -47.91640000     -30.77920000     -71.64110000
S      -47.14200000     -36.65550000     -71.59440000
C      -46.20360000     -31.36490000     -71.41690000
H      -46.09260000     -32.25630000     -72.06120000
H      -45.46350000     -30.75170000     -71.84410000
C      -45.33750000     -36.16160000     -71.31050000
H      -44.68740000     -36.24410000     -72.17730000
H      -44.96160000     -36.92330000     -70.52440000
C      -45.36670000     -34.77460000     -70.70640000
H      -45.72070000     -34.03080000     -71.40280000
H      -46.14170000     -34.60760000     -69.90460000
C      -45.92840000     -31.67880000     -69.89730000
H      -46.40240000     -32.66200000     -69.59430000
H      -46.48170000     -30.96880000     -69.22680000
C      -44.47830000     -31.80600000     -69.53710000
C      -43.66600000     -30.79860000     -69.01230000
C      -43.71420000     -33.02420000     -69.63650000
H      -43.97680000     -29.77440000     -68.81550000
C      -42.37900000     -32.92970000     -69.20320000
C      -43.98110000     -34.37570000     -70.15790000
C      -42.93830000     -35.23750000     -69.96060000
S      -41.99100000     -31.34000000     -68.53720000
S      -41.40670000     -34.41120000     -69.44450000
H      -42.88480000     -36.28960000     -70.18370000
