40
Properties=species:S:1:pos:R:3 #=T CELL(abcABC):=T 1.889726e+02=T 90.00000=T Traj:=T positionsangstrom=T Step:=T 0=T Bead:=T pbc="F F F"
C      -45.73990000     -34.92070000     -74.70110000
C      -46.83230000     -35.02010000     -73.83140000
C      -47.41050000     -33.88600000     -73.35880000
C      -46.99440000     -32.60470000     -73.78160000
C      -45.96570000     -32.46950000     -74.70580000
C      -45.31760000     -33.64880000     -75.07660000
H      -45.31500000     -35.87620000     -74.98130000
H      -48.32460000     -34.06790000     -72.66510000
H      -45.73910000     -31.48070000     -75.15800000
H      -44.46910000     -33.62350000     -75.76940000
C      -47.74030000     -31.35220000     -73.34520000
H      -48.74880000     -31.11140000     -73.74580000
H      -47.20150000     -30.46170000     -73.63250000
C      -47.46720000     -36.33970000     -73.37650000
H      -48.57210000     -36.25250000     -73.63230000
H      -47.10240000     -37.19180000     -73.90810000
S      -47.94270000     -31.17140000     -71.52160000
S      -47.49770000     -36.55010000     -71.56190000
C      -46.26050000     -30.87240000     -70.96480000
H      -45.56520000     -31.41470000     -71.55560000
H      -46.04790000     -29.75630000     -70.88110000
C      -45.78010000     -36.11080000     -70.98580000
H      -45.07390000     -36.10930000     -71.82260000
H      -45.39020000     -36.85370000     -70.17550000
C      -45.68350000     -34.69270000     -70.47270000
H      -46.02130000     -33.98080000     -71.21520000
H      -46.23760000     -34.65430000     -69.53580000
C      -46.06770000     -31.46230000     -69.51710000
H      -46.54770000     -32.41060000     -69.43060000
H      -46.43200000     -30.76970000     -68.78870000
C      -44.63870000     -31.70890000     -69.32820000
C      -43.69930000     -30.73670000     -69.07070000
C      -43.97000000     -32.96720000     -69.50250000
H      -43.93570000     -29.73850000     -68.89240000
C      -42.60750000     -32.88190000     -69.44730000
C      -44.27740000     -34.31530000     -69.96780000
C      -43.26010000     -35.15120000     -70.11910000
S      -41.98720000     -31.28620000     -68.98770000
S      -41.78010000     -34.38620000     -69.65370000
H      -43.24150000     -36.10540000     -70.64370000
