40
Properties=species:S:1:pos:R:3 #=T CELL(abcABC):=T 1.889726e+02=T 90.00000=T Traj:=T positionsangstrom=T Step:=T 0=T Bead:=T pbc="F F F"
C      -47.95370000     -35.19500000     -69.41470000
C      -48.27030000     -33.81890000     -69.28300000
C      -47.33710000     -32.94870000     -68.67710000
C      -46.13090000     -33.43850000     -68.25890000
C      -45.78890000     -34.80580000     -68.40090000
C      -46.73850000     -35.69180000     -68.89750000
H      -48.56200000     -35.86320000     -70.03410000
H      -47.75720000     -31.98000000     -68.35270000
H      -44.82560000     -35.29990000     -68.17930000
H      -46.62360000     -36.82300000     -68.87420000
C      -45.19420000     -32.53640000     -67.47530000
H      -44.37060000     -33.09050000     -67.04330000
H      -45.64680000     -31.96320000     -66.57930000
C      -49.42970000     -33.30260000     -70.00880000
H      -50.13150000     -34.08610000     -70.11500000
H      -49.78660000     -32.48760000     -69.40620000
S      -44.50550000     -31.20840000     -68.63150000
S      -49.05210000     -32.60340000     -71.71280000
C      -43.64280000     -32.24560000     -69.85130000
H      -42.52370000     -32.33400000     -69.58910000
H      -44.11790000     -33.25180000     -69.87330000
C      -47.81750000     -33.76850000     -72.43870000
H      -48.11650000     -34.06130000     -73.37990000
H      -47.66320000     -34.67220000     -71.91270000
C      -46.43920000     -33.09510000     -72.47940000
H      -46.39380000     -31.99560000     -72.85920000
H      -46.16510000     -32.84290000     -71.42880000
C      -43.79660000     -31.45200000     -71.15970000
H      -43.35940000     -30.52510000     -71.05000000
H      -44.83790000     -31.34680000     -71.33680000
C      -43.22250000     -32.31200000     -72.30690000
C      -41.89130000     -32.19620000     -72.68170000
C      -43.85530000     -33.37590000     -73.06230000
H      -41.16340000     -31.53000000     -72.31250000
C      -43.01430000     -34.07040000     -73.90470000
C      -45.27830000     -33.82010000     -73.12240000
C      -45.33020000     -34.94450000     -73.92120000
S      -41.39910000     -33.50460000     -73.74610000
S      -43.77060000     -35.44830000     -74.64740000
H      -46.30220000     -35.36340000     -74.14540000
