40
Properties=species:S:1:pos:R:3 #=T CELL(abcABC):=T 1.889726e+02=T 90.00000=T Traj:=T positionsangstrom=T Step:=T 0=T Bead:=T pbc="F F F"
C      -45.62910000     -34.78160000     -74.80460000
C      -46.86460000     -34.98520000     -74.15100000
C      -47.60650000     -33.85680000     -73.75780000
C      -47.22710000     -32.53250000     -74.07520000
C      -46.07580000     -32.39220000     -74.80680000
C      -45.25030000     -33.48200000     -75.10660000
H      -44.96410000     -35.58380000     -75.21500000
H      -48.61410000     -34.03650000     -73.18950000
H      -45.79190000     -31.42380000     -75.26440000
H      -44.38130000     -33.29590000     -75.68340000
C      -48.02110000     -31.33040000     -73.63520000
H      -49.10460000     -31.35730000     -73.75300000
H      -47.77170000     -30.50380000     -74.19770000
C      -47.46380000     -36.26640000     -73.72950000
H      -48.50340000     -36.44850000     -73.82480000
H      -46.99560000     -37.14830000     -74.22590000
S      -47.83190000     -31.04280000     -71.77760000
S      -47.28980000     -36.55260000     -71.93270000
C      -46.04270000     -31.16020000     -71.45950000
H      -45.74860000     -32.01450000     -72.03510000
H      -45.53410000     -30.20290000     -71.69700000
C      -45.58120000     -35.94890000     -71.46920000
H      -45.14150000     -35.64880000     -72.38020000
H      -45.04850000     -36.83460000     -71.14950000
C      -45.58890000     -34.86630000     -70.35760000
H      -46.16920000     -34.06950000     -70.79560000
H      -46.17520000     -35.19180000     -69.41880000
C      -45.97970000     -31.44480000     -69.93680000
H      -46.56030000     -32.32130000     -69.67780000
H      -46.53100000     -30.61100000     -69.44670000
C      -44.59190000     -31.64690000     -69.45830000
C      -43.79480000     -30.73110000     -68.78740000
C      -43.90360000     -32.96870000     -69.44730000
H      -44.11210000     -29.71790000     -68.58300000
C      -42.69580000     -32.96720000     -68.72840000
C      -44.22050000     -34.34970000     -69.80560000
C      -43.22810000     -35.25460000     -69.66660000
S      -42.19150000     -31.31890000     -68.38690000
S      -41.86000000     -34.51830000     -68.89010000
H      -43.28500000     -36.31610000     -69.93600000
