40
Properties=species:S:1:pos:R:3 #=T CELL(abcABC):=T 1.889726e+02=T 90.00000=T Traj:=T positionsangstrom=T Step:=T 0=T Bead:=T pbc="F F F"
C      -48.83600000     -31.94960000     -70.44830000
C      -48.26900000     -32.67900000     -69.42480000
C      -47.96720000     -33.99560000     -69.74080000
C      -48.43210000     -34.65190000     -70.87350000
C      -49.17470000     -33.95020000     -71.79230000
C      -49.31820000     -32.56820000     -71.59540000
H      -49.12590000     -30.85830000     -70.22550000
H      -47.33720000     -34.69920000     -69.09800000
H      -49.54920000     -34.43180000     -72.67190000
H      -50.00710000     -32.04700000     -72.25740000
C      -48.21980000     -36.09600000     -71.04980000
H      -48.57720000     -36.53250000     -71.96520000
H      -48.69530000     -36.66460000     -70.18900000
C      -47.88790000     -32.03000000     -68.17280000
H      -48.50890000     -31.14740000     -67.88220000
H      -48.20050000     -32.65570000     -67.24040000
S      -46.40350000     -36.64000000     -70.88230000
S      -46.11950000     -31.51990000     -68.05050000
C      -45.41620000     -35.52720000     -71.95830000
H      -45.37120000     -35.77200000     -73.03000000
H      -45.77440000     -34.51920000     -71.87910000
C      -45.62570000     -31.28260000     -69.89240000
H      -45.08650000     -30.29090000     -69.93150000
H      -46.52020000     -31.30700000     -70.47690000
C      -44.86040000     -32.51150000     -70.38100000
H      -44.05020000     -32.62010000     -69.62170000
H      -45.58860000     -33.30700000     -70.41250000
C      -44.00700000     -35.51670000     -71.35990000
H      -43.49410000     -36.51150000     -71.44030000
H      -43.98420000     -35.14290000     -70.33830000
C      -43.09520000     -34.66490000     -72.18860000
C      -41.98590000     -35.14340000     -72.86390000
C      -43.24400000     -33.26270000     -72.30460000
H      -41.62200000     -36.17000000     -73.05020000
C      -42.34280000     -32.68750000     -73.19000000
C      -44.12230000     -32.21730000     -71.64990000
C      -43.91940000     -31.03630000     -72.36490000
S      -41.21490000     -33.88970000     -73.83150000
S      -42.65940000     -31.01900000     -73.53140000
H      -44.33450000     -30.03670000     -72.06590000
