40
Properties=species:S:1:pos:R:3 #=T CELL(abcABC):=T 1.889726e+02=T 90.00000=T Traj:=T positionsangstrom=T Step:=T 0=T Bead:=T pbc="F F F"
C      -48.38090000     -31.48750000     -71.39960000
C      -48.32720000     -32.17640000     -70.21560000
C      -48.31970000     -33.58380000     -70.28350000
C      -48.33700000     -34.29380000     -71.56130000
C      -48.35540000     -33.57130000     -72.73330000
C      -48.38600000     -32.14420000     -72.64150000
H      -48.32080000     -30.46040000     -71.48750000
H      -48.26370000     -34.20210000     -69.29840000
H      -48.32490000     -34.14260000     -73.65820000
H      -48.41780000     -31.51780000     -73.52250000
C      -48.27220000     -35.84290000     -71.67180000
H      -48.31880000     -36.18670000     -72.72470000
H      -49.17960000     -36.38030000     -71.21970000
C      -48.25170000     -31.39720000     -68.95040000
H      -48.24020000     -30.31890000     -69.03950000
H      -49.18030000     -31.52160000     -68.30220000
S      -46.71910000     -36.54510000     -70.98120000
S      -46.81560000     -31.98030000     -67.92260000
C      -45.54140000     -35.57640000     -72.06350000
H      -45.68360000     -36.11730000     -73.05760000
H      -45.67870000     -34.54070000     -71.98740000
C      -45.30850000     -31.64500000     -69.01830000
H      -44.46540000     -31.36000000     -68.35670000
H      -45.65760000     -30.82410000     -69.61020000
C      -44.89620000     -32.84320000     -69.87550000
H      -44.70850000     -33.73170000     -69.20790000
H      -45.73640000     -33.11660000     -70.52030000
C      -44.08960000     -35.85840000     -71.47520000
H      -43.80290000     -36.89150000     -71.69090000
H      -44.09430000     -35.56760000     -70.40070000
C      -43.21960000     -34.90990000     -72.23750000
C      -42.61940000     -35.13510000     -73.48120000
C      -43.10520000     -33.54860000     -71.79820000
H      -42.51320000     -36.21130000     -73.80920000
C      -42.22080000     -32.87520000     -72.64750000
C      -43.68440000     -32.62670000     -70.86580000
C      -43.14420000     -31.37300000     -70.89470000
S      -41.73270000     -33.76740000     -74.06720000
S      -42.03860000     -31.14180000     -72.22700000
H      -43.31590000     -30.49010000     -70.26780000
