40
Properties=species:S:1:pos:R:3 #=T CELL(abcABC):=T 1.889726e+02=T 90.00000=T Traj:=T positionsangstrom=T Step:=T 0=T Bead:=T pbc="F F F"
C      -48.24580000     -31.46060000     -71.32570000
C      -48.29060000     -32.26230000     -70.14370000
C      -48.35870000     -33.64870000     -70.37060000
C      -48.47890000     -34.25440000     -71.61520000
C      -48.36160000     -33.44960000     -72.79940000
C      -48.23270000     -32.06740000     -72.58320000
H      -48.18920000     -30.38460000     -71.22970000
H      -48.39760000     -34.39400000     -69.46120000
H      -48.25130000     -33.87330000     -73.76300000
H      -48.29520000     -31.38000000     -73.50360000
C      -48.51540000     -35.78210000     -71.64770000
H      -48.71220000     -36.18290000     -72.63280000
H      -49.32100000     -35.96490000     -70.94580000
C      -48.24750000     -31.73570000     -68.74700000
H      -48.66110000     -30.70870000     -68.65450000
H      -48.96320000     -32.30940000     -68.08900000
S      -46.94110000     -36.59760000     -71.01020000
S      -46.62690000     -31.88830000     -67.91200000
C      -45.75520000     -35.65620000     -72.03930000
H      -45.88480000     -35.85060000     -73.09070000
H      -46.09040000     -34.63610000     -72.03730000
C      -45.30880000     -31.58020000     -69.23460000
H      -44.54650000     -30.94060000     -68.75780000
H      -45.72150000     -30.92830000     -70.01550000
C      -44.69670000     -32.80590000     -69.80590000
H      -44.37110000     -33.44900000     -68.96320000
H      -45.45670000     -33.39500000     -70.26130000
C      -44.30950000     -35.84180000     -71.55560000
H      -43.95370000     -36.83420000     -71.77380000
H      -44.40340000     -35.74010000     -70.50780000
C      -43.32760000     -34.87390000     -72.18950000
C      -42.60010000     -35.22390000     -73.33040000
C      -43.15090000     -33.41990000     -71.91680000
H      -42.77080000     -36.13130000     -73.88650000
C      -42.23810000     -32.81040000     -72.80830000
C      -43.62560000     -32.53170000     -70.84790000
C      -43.08340000     -31.31030000     -70.95450000
S      -41.65810000     -33.85230000     -73.98350000
S      -41.89530000     -31.16450000     -72.25610000
H      -43.40740000     -30.37880000     -70.52890000
