40
Properties=species:S:1:pos:R:3 #=T CELL(abcABC):=T 1.889726e+02=T 90.00000=T Traj:=T positionsangstrom=T Step:=T 0=T Bead:=T pbc="F F F"
C      -41.09330000     -35.07590000     -72.14360000
C      -42.38650000     -35.30820000     -72.57610000
C      -43.38010000     -35.62450000     -71.58030000
C      -43.06050000     -35.82890000     -70.22500000
C      -41.67090000     -35.68740000     -69.83120000
C      -40.73600000     -35.32030000     -70.81420000
H      -40.21260000     -34.75930000     -72.84820000
H      -44.36790000     -35.87680000     -71.95360000
H      -41.34460000     -35.85490000     -68.88640000
H      -39.74160000     -35.11170000     -70.51720000
C      -44.13000000     -35.87370000     -69.18980000
H      -43.87870000     -36.58270000     -68.38130000
H      -45.13720000     -36.07830000     -69.61250000
C      -42.80720000     -34.95190000     -73.93070000
H      -42.01880000     -35.20030000     -74.67460000
H      -43.73760000     -35.46480000     -74.23120000
S      -44.24050000     -34.22940000     -68.32760000
S      -43.12350000     -33.12130000     -74.01730000
C      -44.28820000     -33.11470000     -69.75160000
H      -43.20680000     -32.76790000     -69.92660000
H      -44.62900000     -33.72600000     -70.61920000
C      -44.94910000     -33.26230000     -73.70170000
H      -45.07810000     -34.12210000     -72.98990000
H      -45.32720000     -33.62560000     -74.64910000
C      -45.46400000     -31.93320000     -73.29230000
H      -44.81310000     -31.48760000     -72.60440000
H      -45.48510000     -31.21360000     -74.14230000
C      -45.21480000     -31.84560000     -69.59230000
H      -44.84830000     -30.97260000     -70.16580000
H      -45.17590000     -31.63010000     -68.53300000
C      -46.70480000     -31.97040000     -70.03930000
C      -47.62680000     -31.94600000     -68.99670000
C      -47.26770000     -31.95270000     -71.35230000
H      -47.48090000     -31.94070000     -67.84440000
C      -48.69250000     -32.02150000     -71.18570000
C      -46.87320000     -31.94790000     -72.73560000
C      -47.96810000     -32.02240000     -73.60680000
S      -49.24510000     -32.02820000     -69.56120000
S      -49.48480000     -32.11090000     -72.73220000
H      -47.90740000     -31.85200000     -74.67180000
