40
Properties=species:S:1:pos:R:3 #=T CELL(abcABC):=T 1.889726e+02=T 90.00000=T Traj:=T positionsangstrom=T Step:=T 0=T Bead:=T pbc="F F F"
C      -48.37250000     -31.46610000     -71.60460000
C      -48.20880000     -32.12370000     -70.38890000
C      -48.24970000     -33.52130000     -70.37560000
C      -48.28330000     -34.37340000     -71.53610000
C      -48.39380000     -33.67840000     -72.76580000
C      -48.56530000     -32.25800000     -72.75050000
H      -48.63270000     -30.41270000     -71.68680000
H      -48.25900000     -34.04820000     -69.40360000
H      -48.58830000     -34.19890000     -73.73610000
H      -48.73180000     -31.69000000     -73.59940000
C      -48.36160000     -35.85860000     -71.36080000
H      -48.73330000     -36.40750000     -72.16650000
H      -48.93030000     -36.16830000     -70.43750000
C      -48.18270000     -31.40540000     -68.98690000
H      -47.84970000     -30.44380000     -69.29990000
H      -49.10680000     -31.47100000     -68.48160000
S      -46.72310000     -36.51500000     -70.82820000
S      -46.75520000     -32.17970000     -67.95710000
C      -45.51980000     -35.89950000     -72.02430000
H      -45.51390000     -36.51200000     -72.92930000
H      -45.70830000     -34.85330000     -72.35190000
C      -45.27940000     -31.84230000     -68.96170000
H      -44.47830000     -31.68080000     -68.21410000
H      -45.28620000     -30.91170000     -69.57640000
C      -44.81080000     -33.03250000     -69.89720000
H      -44.37740000     -33.73070000     -69.23850000
H      -45.65720000     -33.57530000     -70.31710000
C      -44.03810000     -35.86730000     -71.48080000
H      -43.49550000     -36.78100000     -71.59390000
H      -44.07050000     -35.75010000     -70.36190000
C      -43.23380000     -34.79160000     -72.20480000
C      -42.47900000     -35.07140000     -73.32800000
C      -43.23510000     -33.35640000     -71.93000000
H      -42.24540000     -36.13110000     -73.61000000
C      -42.37820000     -32.67310000     -72.75160000
C      -43.77780000     -32.46640000     -70.93840000
C      -43.25950000     -31.17990000     -70.91800000
S      -41.74910000     -33.66510000     -74.04650000
S      -42.04410000     -31.02900000     -72.25600000
H      -43.31400000     -30.54690000     -70.01500000
