40
Properties=species:S:1:pos:R:3 #=T CELL(abcABC):=T 1.889726e+02=T 90.00000=T Traj:=T positionsangstrom=T Step:=T 0=T Bead:=T pbc="F F F"
C      -47.55110000     -30.91980000     -71.73940000
C      -47.78470000     -31.50490000     -70.49700000
C      -48.39170000     -32.79730000     -70.38740000
C      -48.76790000     -33.51930000     -71.51810000
C      -48.59870000     -32.90210000     -72.77490000
C      -48.05490000     -31.61810000     -72.89290000
H      -47.22050000     -29.90600000     -71.84660000
H      -48.52280000     -33.20140000     -69.39680000
H      -48.87530000     -33.44800000     -73.68980000
H      -47.94580000     -31.20870000     -73.88410000
C      -49.31420000     -34.92630000     -71.29980000
H      -50.05800000     -35.22890000     -72.12200000
H      -49.79860000     -35.04080000     -70.36140000
C      -47.44710000     -30.63900000     -69.26870000
H      -46.97100000     -29.69980000     -69.54560000
H      -48.38690000     -30.36140000     -68.80300000
S      -47.82600000     -36.03470000     -71.03950000
S      -46.23420000     -31.43460000     -68.08340000
C      -46.39650000     -35.29080000     -71.98850000
H      -46.40950000     -35.69150000     -72.97610000
H      -46.54520000     -34.19930000     -72.18820000
C      -44.76470000     -31.43410000     -69.20710000
H      -43.87670000     -31.46740000     -68.54390000
H      -44.93790000     -30.62550000     -69.85270000
C      -44.70700000     -32.75390000     -70.05690000
H      -44.51520000     -33.62540000     -69.44430000
H      -45.63190000     -32.73640000     -70.62850000
C      -45.14250000     -35.72700000     -71.30520000
H      -45.12350000     -36.82620000     -71.41290000
H      -45.06940000     -35.43790000     -70.21090000
C      -43.86020000     -35.21310000     -72.08360000
C      -43.16770000     -35.94990000     -73.03370000
C      -43.22780000     -33.93690000     -71.81670000
H      -43.54120000     -36.89740000     -73.37660000
C      -42.04450000     -33.83440000     -72.53400000
C      -43.50060000     -32.79640000     -70.95190000
C      -42.51290000     -31.80830000     -71.13640000
S      -41.71800000     -35.10740000     -73.67420000
S      -41.17430000     -32.32410000     -72.12350000
H      -42.48100000     -30.85440000     -70.61900000
