40
Properties=species:S:1:pos:R:3 #=T CELL(abcABC):=T 1.889726e+02=T 90.00000=T Traj:=T positionsangstrom=T Step:=T 0=T Bead:=T pbc="F F F"
C      -47.00250000     -30.75200000     -71.67810000
C      -47.37810000     -31.25330000     -70.45690000
C      -48.09710000     -32.52280000     -70.44340000
C      -48.32470000     -33.29890000     -71.60210000
C      -47.71690000     -32.76230000     -72.78310000
C      -47.16310000     -31.47000000     -72.86530000
H      -46.42010000     -29.84340000     -71.62640000
H      -48.67750000     -32.84440000     -69.60290000
H      -47.80980000     -33.38680000     -73.72850000
H      -46.74020000     -31.10120000     -73.79820000
C      -48.98920000     -34.60880000     -71.56840000
H      -49.23650000     -35.11890000     -72.53280000
H      -49.87990000     -34.56340000     -71.01360000
C      -47.21160000     -30.45690000     -69.20980000
H      -47.01260000     -29.43480000     -69.39720000
H      -48.13020000     -30.53050000     -68.64510000
S      -47.91520000     -35.73680000     -70.58360000
S      -45.96010000     -31.16340000     -67.98290000
C      -46.38920000     -35.82630000     -71.68700000
H      -46.54660000     -36.64000000     -72.35380000
H      -46.23040000     -34.86950000     -72.25480000
C      -44.51280000     -31.43580000     -69.04210000
H      -43.63340000     -30.95940000     -68.56010000
H      -44.49470000     -30.78060000     -69.89230000
C      -44.39710000     -32.86290000     -69.64940000
H      -43.94970000     -33.61680000     -68.95530000
H      -45.43560000     -33.24680000     -69.70590000
C      -45.06540000     -36.02530000     -70.83460000
H      -44.92940000     -37.07270000     -70.66190000
H      -45.03560000     -35.45670000     -69.88540000
C      -43.93100000     -35.56250000     -71.73280000
C      -43.40080000     -36.29140000     -72.76460000
C      -43.52370000     -34.19810000     -71.78400000
H      -43.59120000     -37.33830000     -73.02140000
C      -42.71120000     -33.92530000     -72.92420000
C      -43.60690000     -33.03700000     -70.90770000
C      -42.85580000     -31.99300000     -71.40000000
S      -42.33980000     -35.34060000     -73.89920000
S      -42.01550000     -32.35100000     -72.96280000
H      -42.73780000     -31.00890000     -70.92070000
