40
Properties=species:S:1:pos:R:3 #=T CELL(abcABC):=T 1.889726e+02=T 90.00000=T Traj:=T positionsangstrom=T Step:=T 0=T Bead:=T pbc="F F F"
C      -47.40000000     -30.46660000     -71.66360000
C      -47.35180000     -30.95350000     -70.36500000
C      -47.90810000     -32.20520000     -70.08550000
C      -48.48860000     -32.92320000     -71.11710000
C      -48.53130000     -32.43550000     -72.40920000
C      -47.97490000     -31.20950000     -72.69100000
H      -46.77540000     -29.56550000     -71.78920000
H      -47.95740000     -32.58330000     -69.05760000
H      -49.09360000     -33.05260000     -73.07930000
H      -48.15140000     -30.71390000     -73.64170000
C      -49.07140000     -34.29320000     -70.76790000
H      -49.40630000     -34.82650000     -71.70370000
H      -49.91340000     -34.22000000     -70.09580000
C      -46.62810000     -30.08010000     -69.30880000
H      -46.06670000     -29.21110000     -69.75110000
H      -47.39370000     -29.72720000     -68.57340000
S      -47.89580000     -35.52270000     -69.99080000
S      -45.40580000     -31.03240000     -68.25950000
C      -46.49930000     -35.31490000     -71.23080000
H      -46.74770000     -35.78290000     -72.18650000
H      -46.22820000     -34.31260000     -71.34430000
C      -44.17420000     -31.50740000     -69.49600000
H      -43.19890000     -31.49850000     -69.04320000
H      -44.22220000     -30.72040000     -70.27510000
C      -44.45040000     -32.88900000     -70.25250000
H      -44.37580000     -33.70930000     -69.54080000
H      -45.43330000     -32.94110000     -70.73680000
C      -45.18110000     -36.08530000     -70.80680000
H      -45.28780000     -37.15250000     -70.88550000
H      -44.87940000     -35.83220000     -69.84660000
C      -44.00590000     -35.82910000     -71.73330000
C      -43.52660000     -36.64650000     -72.71100000
C      -43.45160000     -34.39820000     -71.97380000
H      -43.82070000     -37.67400000     -72.88070000
C      -42.58490000     -34.38150000     -73.07560000
C      -43.50920000     -33.08220000     -71.34800000
C      -42.84140000     -32.06000000     -72.03490000
S      -42.45990000     -35.92420000     -73.85500000
S      -41.94820000     -32.78600000     -73.43120000
H      -42.60090000     -30.99850000     -71.81580000
