40
Properties=species:S:1:pos:R:3 #=T CELL(abcABC):=T 1.889726e+02=T 90.00000=T Traj:=T positionsangstrom=T Step:=T 0=T Bead:=T pbc="F F F"
C      -46.90060000     -30.45620000     -71.44260000
C      -47.40190000     -30.95170000     -70.25000000
C      -48.05900000     -32.12650000     -70.20360000
C      -48.13500000     -32.95000000     -71.32690000
C      -47.47410000     -32.50810000     -72.50510000
C      -46.84010000     -31.26330000     -72.59550000
H      -46.29570000     -29.57420000     -71.50430000
H      -48.44800000     -32.47500000     -69.22920000
H      -47.63850000     -33.13240000     -73.35940000
H      -46.43010000     -30.81490000     -73.56140000
C      -48.76020000     -34.36910000     -71.23580000
H      -48.99600000     -34.75900000     -72.23720000
H      -49.69780000     -34.37550000     -70.67840000
C      -47.09830000     -30.17570000     -68.97210000
H      -46.80500000     -29.12980000     -69.17610000
H      -47.87090000     -30.23330000     -68.18340000
S      -47.78880000     -35.72280000     -70.27580000
S      -45.70140000     -31.11080000     -68.05220000
C      -46.47620000     -36.02220000     -71.42340000
H      -46.58420000     -36.98560000     -71.88800000
H      -46.47520000     -35.21400000     -72.17570000
C      -44.50180000     -31.46220000     -69.41890000
H      -43.46760000     -31.34760000     -69.09050000
H      -44.59570000     -30.62840000     -70.08800000
C      -44.59910000     -32.85560000     -69.99810000
H      -44.19960000     -33.54920000     -69.23630000
H      -45.56040000     -33.19560000     -70.29510000
C      -45.08750000     -36.10100000     -70.78550000
H      -44.85430000     -37.16090000     -70.56490000
H      -45.05360000     -35.46600000     -69.98440000
C      -44.01650000     -35.64600000     -71.77700000
C      -43.44140000     -36.53340000     -72.64670000
C      -43.68190000     -34.28710000     -72.04700000
H      -43.76750000     -37.55800000     -72.72040000
C      -42.88910000     -34.17520000     -73.19720000
C      -43.88050000     -33.02820000     -71.29410000
C      -43.14630000     -32.03150000     -71.93490000
S      -42.45840000     -35.69760000     -73.82630000
S      -42.25620000     -32.59840000     -73.41130000
H      -43.23610000     -31.06580000     -71.54270000
