40
Properties=species:S:1:pos:R:3 #=T CELL(abcABC):=T 1.889726e+02=T 90.00000=T Traj:=T positionsangstrom=T Step:=T 0=T Bead:=T pbc="F F F"
C      -47.44550000     -30.90570000     -71.84700000
C      -47.77690000     -31.34200000     -70.54950000
C      -48.36360000     -32.61580000     -70.38150000
C      -48.69150000     -33.45560000     -71.47300000
C      -48.36560000     -33.01990000     -72.75600000
C      -47.75240000     -31.74830000     -72.90490000
H      -47.02220000     -29.86670000     -71.97940000
H      -48.52410000     -32.87120000     -69.39700000
H      -48.60320000     -33.52260000     -73.62660000
H      -47.39070000     -31.50170000     -73.90500000
C      -49.17700000     -34.89900000     -71.36050000
H      -49.55440000     -35.15270000     -72.30600000
H      -49.98640000     -35.16880000     -70.68090000
C      -47.44430000     -30.57150000     -69.30180000
H      -47.01440000     -29.58740000     -69.49660000
H      -48.39680000     -30.49510000     -68.68350000
S      -47.82050000     -36.07770000     -70.87670000
S      -46.26290000     -31.41670000     -68.13830000
C      -46.46700000     -35.54280000     -71.90760000
H      -46.53390000     -35.94150000     -72.89090000
H      -46.51150000     -34.42860000     -71.85660000
C      -44.65780000     -31.51620000     -69.00170000
H      -43.86640000     -31.61060000     -68.22100000
H      -44.34190000     -30.56230000     -69.49960000
C      -44.62320000     -32.74520000     -69.94670000
H      -44.78990000     -33.63710000     -69.30540000
H      -45.50900000     -32.86850000     -70.62180000
C      -45.11230000     -35.86060000     -71.26180000
H      -44.96900000     -36.94820000     -71.25600000
H      -45.21630000     -35.56110000     -70.20870000
C      -43.94140000     -35.19270000     -71.99850000
C      -43.35750000     -35.87420000     -73.03500000
C      -43.25360000     -33.91940000     -71.75850000
H      -43.67470000     -36.87900000     -73.18870000
C      -42.13790000     -33.79480000     -72.60420000
C      -43.40850000     -32.81990000     -70.84200000
C      -42.41870000     -31.84920000     -71.02130000
S      -41.91260000     -35.09410000     -73.72660000
S      -41.32750000     -32.23950000     -72.42440000
H      -42.21000000     -30.96710000     -70.41430000
