40
Properties=species:S:1:pos:R:3 #=T CELL(abcABC):=T 1.889726e+02=T 90.00000=T Traj:=T positionsangstrom=T Step:=T 0=T Bead:=T pbc="F F F"
C      -47.01260000     -30.79670000     -71.74310000
C      -47.38300000     -31.32800000     -70.49630000
C      -47.95730000     -32.57830000     -70.42380000
C      -48.31570000     -33.32840000     -71.62730000
C      -47.96850000     -32.72640000     -72.80500000
C      -47.38500000     -31.48410000     -72.87420000
H      -46.77220000     -29.76890000     -71.82140000
H      -48.19630000     -33.08680000     -69.43410000
H      -48.31250000     -33.37930000     -73.65480000
H      -47.27890000     -31.03390000     -73.87230000
C      -48.97120000     -34.68930000     -71.48670000
H      -49.36480000     -34.99780000     -72.44600000
H      -49.83790000     -34.48070000     -70.92220000
C      -47.21160000     -30.45530000     -69.29630000
H      -46.89700000     -29.43260000     -69.62920000
H      -48.20870000     -30.27720000     -68.81430000
S      -47.88840000     -35.95220000     -70.59400000
S      -46.06980000     -31.22710000     -68.08660000
C      -46.45360000     -35.74810000     -71.72800000
H      -46.57430000     -36.25010000     -72.72320000
H      -46.55720000     -34.71300000     -71.98730000
C      -44.58110000     -31.46860000     -69.16950000
H      -43.70450000     -31.50260000     -68.52810000
H      -44.62050000     -30.71430000     -70.03050000
C      -44.61230000     -32.95530000     -69.74870000
H      -44.31490000     -33.60310000     -68.93320000
H      -45.56390000     -33.17640000     -70.24510000
C      -45.12440000     -36.10480000     -71.04570000
H      -45.07450000     -37.26920000     -71.05250000
H      -45.14450000     -35.73190000     -70.00190000
C      -43.99390000     -35.46690000     -71.80970000
C      -43.53170000     -36.05820000     -72.91910000
C      -43.29200000     -34.15820000     -71.68700000
H      -43.84290000     -37.00070000     -73.39400000
C      -42.36580000     -33.88990000     -72.71000000
C      -43.54770000     -33.00600000     -70.84600000
C      -42.79220000     -31.96500000     -71.31660000
S      -42.26300000     -35.20390000     -73.83420000
S      -41.84830000     -32.25010000     -72.70480000
H      -42.69890000     -30.97650000     -70.94130000
