40
Properties=species:S:1:pos:R:3 #=T CELL(abcABC):=T 1.889726e+02=T 90.00000=T Traj:=T positionsangstrom=T Step:=T 0=T Bead:=T pbc="F F F"
C      -43.75680000     -31.63660000     -74.88730000
C      -45.04220000     -32.32460000     -74.87090000
C      -46.11730000     -31.81250000     -74.14160000
C      -45.87380000     -30.60130000     -73.39800000
C      -44.62350000     -29.95640000     -73.41310000
C      -43.49980000     -30.48190000     -74.07840000
H      -42.96030000     -32.17980000     -75.42830000
H      -47.05400000     -32.40160000     -73.91960000
H      -44.58020000     -29.05060000     -72.81560000
H      -42.40560000     -30.18680000     -73.94150000
C      -46.97750000     -29.81670000     -72.74380000
H      -47.72200000     -29.46580000     -73.45210000
H      -46.50510000     -29.00730000     -72.16680000
C      -45.05770000     -33.69140000     -75.57110000
H      -45.64710000     -33.85380000     -76.51150000
H      -44.09030000     -33.90130000     -75.98420000
S      -47.97510000     -30.83430000     -71.54170000
S      -45.59930000     -35.01910000     -74.43570000
C      -46.55920000     -31.52780000     -70.45800000
H      -45.54510000     -31.36070000     -70.93270000
H      -46.44680000     -30.89840000     -69.56830000
C      -44.66620000     -34.66970000     -72.85190000
H      -44.60350000     -33.62590000     -72.66480000
H      -43.62460000     -34.92230000     -72.90870000
C      -45.39490000     -35.55280000     -71.80580000
H      -46.45120000     -35.37150000     -71.77550000
H      -45.24010000     -36.63690000     -72.03170000
C      -46.82750000     -32.95870000     -70.03130000
H      -46.76710000     -33.55780000     -70.95660000
H      -47.90180000     -33.07040000     -69.75890000
C      -45.85910000     -33.60840000     -69.04280000
C      -45.82280000     -33.07410000     -67.79020000
C      -45.03760000     -34.73380000     -69.23660000
H      -46.49800000     -32.34490000     -67.35910000
C      -44.31950000     -35.14250000     -68.08390000
C      -44.80660000     -35.61550000     -70.34880000
C      -43.91790000     -36.64100000     -69.99170000
S      -44.69970000     -34.08920000     -66.78560000
S      -43.39940000     -36.57430000     -68.32050000
H      -43.64600000     -37.61090000     -70.45700000
