40
Properties=species:S:1:pos:R:3 #=T CELL(abcABC):=T 1.889726e+02=T 90.00000=T Traj:=T positionsangstrom=T Step:=T 0=T Bead:=T pbc="F F F"
C      -47.77740000     -30.43280000     -71.62780000
C      -47.45980000     -30.90960000     -70.31250000
C      -47.87540000     -32.18820000     -69.98460000
C      -48.73190000     -32.94290000     -70.84170000
C      -48.93100000     -32.50730000     -72.15680000
C      -48.40740000     -31.26510000     -72.56120000
H      -47.36840000     -29.43680000     -71.89670000
H      -47.55680000     -32.50910000     -69.04270000
H      -49.67130000     -33.01650000     -72.82950000
H      -48.57310000     -30.93020000     -73.63440000
C      -49.16390000     -34.36520000     -70.41460000
H      -49.62230000     -34.70870000     -71.35570000
H      -49.99880000     -34.42990000     -69.66830000
C      -46.75610000     -30.04280000     -69.25750000
H      -46.56850000     -29.06120000     -69.75040000
H      -47.47750000     -29.72050000     -68.50030000
S      -47.86860000     -35.45300000     -69.79410000
S      -45.38950000     -30.89430000     -68.43070000
C      -46.73510000     -35.49170000     -71.19620000
H      -47.09680000     -36.19200000     -71.95170000
H      -46.86920000     -34.45020000     -71.55010000
C      -44.12520000     -31.25320000     -69.77640000
H      -43.12980000     -31.15930000     -69.28340000
H      -44.14070000     -30.34620000     -70.41370000
C      -44.38370000     -32.57960000     -70.61050000
H      -44.52950000     -33.38770000     -69.87470000
H      -45.35650000     -32.55320000     -71.07720000
C      -45.31080000     -35.86380000     -70.90900000
H      -45.20900000     -36.90480000     -70.72270000
H      -45.10290000     -35.36770000     -69.94810000
C      -44.22350000     -35.57370000     -72.04210000
C      -43.71950000     -36.57870000     -72.75670000
C      -43.43060000     -34.39530000     -72.19680000
H      -43.97050000     -37.56860000     -72.93270000
C      -42.38890000     -34.54470000     -73.15950000
C      -43.38650000     -33.01030000     -71.63080000
C      -42.31700000     -32.24250000     -72.04650000
S      -42.37350000     -36.09980000     -73.84510000
S      -41.40820000     -33.08340000     -73.30960000
H      -42.21560000     -31.17510000     -71.92220000
