40
Properties=species:S:1:pos:R:3 #=T CELL(abcABC):=T 1.889726e+02=T 90.00000=T Traj:=T positionsangstrom=T Step:=T 0=T Bead:=T pbc="F F F"
C      -47.83760000     -30.48610000     -71.63060000
C      -47.41890000     -30.90890000     -70.37410000
C      -47.87020000     -32.12050000     -69.81120000
C      -48.81100000     -32.87520000     -70.51810000
C      -49.19990000     -32.46550000     -71.80570000
C      -48.77580000     -31.27310000     -72.35630000
H      -47.52750000     -29.60040000     -72.17020000
H      -47.56150000     -32.52320000     -68.75180000
H      -50.03520000     -33.02310000     -72.31430000
H      -49.15580000     -30.93320000     -73.27690000
C      -49.28120000     -34.24460000     -69.90270000
H      -50.10040000     -34.67130000     -70.50030000
H      -49.61520000     -34.09030000     -68.86750000
C      -46.59130000     -29.86340000     -69.60360000
H      -46.23490000     -29.02490000     -70.16320000
H      -47.30750000     -29.56150000     -68.83380000
S      -47.83100000     -35.40530000     -69.93530000
S      -45.26500000     -30.59670000     -68.71170000
C      -46.75170000     -35.01600000     -71.35560000
H      -47.15830000     -35.31050000     -72.32200000
H      -46.65520000     -33.96830000     -71.56120000
C      -44.04380000     -31.09990000     -69.98270000
H      -43.08940000     -31.18320000     -69.52080000
H      -43.97300000     -30.24040000     -70.71480000
C      -44.43830000     -32.36700000     -70.70130000
H      -44.76720000     -33.11680000     -70.00000000
H      -45.23230000     -32.10070000     -71.38460000
C      -45.46020000     -35.87640000     -71.10690000
H      -45.68620000     -36.99440000     -71.11010000
H      -45.14270000     -35.73030000     -70.11440000
C      -44.24690000     -35.75170000     -72.09090000
C      -43.68870000     -36.83570000     -72.72850000
C      -43.45620000     -34.52960000     -72.14570000
H      -43.96120000     -37.92330000     -72.58970000
C      -42.39120000     -34.70600000     -73.02750000
C      -43.42630000     -33.12510000     -71.62300000
C      -42.33600000     -32.41080000     -72.18540000
S      -42.22940000     -36.32680000     -73.70930000
S      -41.35450000     -33.33370000     -73.23590000
H      -41.95930000     -31.48380000     -71.72370000
