40
Properties=species:S:1:pos:R:3 #=T CELL(abcABC):=T 1.889726e+02=T 90.00000=T Traj:=T positionsangstrom=T Step:=T 0=T Bead:=T pbc="F F F"
C      -43.59140000     -31.80240000     -74.60980000
C      -44.89920000     -32.23980000     -74.65150000
C      -45.93430000     -31.60410000     -73.99940000
C      -45.65650000     -30.37100000     -73.34050000
C      -44.39270000     -29.79400000     -73.39730000
C      -43.36890000     -30.57230000     -73.94490000
H      -42.76230000     -32.31450000     -75.15220000
H      -47.00030000     -32.02990000     -74.09340000
H      -44.22540000     -28.70470000     -73.11980000
H      -42.35240000     -30.25390000     -73.99940000
C      -46.87710000     -29.79300000     -72.72250000
H      -47.58030000     -29.44590000     -73.56520000
H      -46.73510000     -28.90690000     -72.19860000
C      -45.17930000     -33.49790000     -75.45870000
H      -46.12480000     -33.18040000     -75.98580000
H      -44.38160000     -33.65670000     -76.19440000
S      -47.95020000     -30.91370000     -71.63830000
S      -45.61300000     -35.03320000     -74.44640000
C      -46.74150000     -31.49700000     -70.36910000
H      -45.71280000     -31.29740000     -70.62230000
H      -46.98820000     -30.96140000     -69.45350000
C      -44.59830000     -35.02390000     -72.86150000
H      -44.59750000     -34.01180000     -72.42260000
H      -43.55660000     -35.37910000     -73.08620000
C      -45.34870000     -35.87340000     -71.75020000
H      -46.42320000     -35.60340000     -71.79670000
H      -45.25880000     -36.90200000     -72.09940000
C      -46.94030000     -33.04140000     -70.14930000
H      -46.66820000     -33.60680000     -71.06950000
H      -48.00640000     -33.32550000     -69.96990000
C      -45.98450000     -33.57560000     -69.18520000
C      -45.84430000     -33.09210000     -67.90280000
C      -45.09330000     -34.73010000     -69.40720000
H      -46.46270000     -32.33720000     -67.41140000
C      -44.50180000     -35.11760000     -68.17860000
C      -44.77270000     -35.72100000     -70.43050000
C      -43.89980000     -36.66060000     -69.93490000
S      -44.81420000     -33.98760000     -66.92240000
S      -43.47580000     -36.52230000     -68.24130000
H      -43.51710000     -37.51150000     -70.52270000
