40
Properties=species:S:1:pos:R:3 #=T CELL(abcABC):=T 1.889726e+02=T 90.00000=T Traj:=T positionsangstrom=T Step:=T 0=T Bead:=T pbc="F F F"
C      -43.14370000     -31.83780000     -73.88900000
C      -44.42700000     -32.35640000     -74.24570000
C      -45.56120000     -31.67400000     -73.83860000
C      -45.51700000     -30.48760000     -73.02900000
C      -44.27100000     -29.94010000     -72.73760000
C      -43.11700000     -30.75620000     -73.03880000
H      -42.15690000     -32.43900000     -74.01690000
H      -46.57220000     -32.03950000     -74.08300000
H      -44.05550000     -29.19250000     -71.96440000
H      -42.16340000     -30.48120000     -72.68930000
C      -46.81850000     -29.80410000     -72.67200000
H      -47.20160000     -29.35640000     -73.63870000
H      -46.68090000     -29.03200000     -71.90820000
C      -44.54440000     -33.55060000     -75.18460000
H      -45.11240000     -33.29850000     -76.12050000
H      -43.48100000     -33.82460000     -75.36190000
S      -48.09280000     -31.04490000     -72.09230000
S      -45.44850000     -34.93440000     -74.45880000
C      -47.47750000     -31.67260000     -70.47460000
H      -47.10670000     -30.79880000     -70.05110000
H      -48.39030000     -31.92690000     -69.91760000
C      -44.63780000     -35.11020000     -72.82450000
H      -44.34010000     -34.18080000     -72.25950000
H      -43.80240000     -35.79900000     -72.87330000
C      -45.60780000     -35.93880000     -71.89160000
H      -46.66050000     -35.72660000     -72.09820000
H      -45.52460000     -37.02120000     -72.10860000
C      -46.56930000     -32.81600000     -70.73740000
H      -45.69090000     -32.56680000     -71.44420000
H      -47.13270000     -33.62660000     -71.25580000
C      -45.87060000     -33.45430000     -69.54450000
C      -45.68870000     -32.76440000     -68.37270000
C      -45.23460000     -34.72280000     -69.50630000
H      -46.07870000     -31.81310000     -68.21470000
C      -44.54010000     -34.98250000     -68.33820000
C      -45.20380000     -35.82770000     -70.42960000
C      -44.50610000     -36.87470000     -69.83550000
S      -44.84510000     -33.70670000     -67.13950000
S      -43.86040000     -36.51240000     -68.27200000
H      -44.26470000     -37.80970000     -70.33470000
