40
Properties=species:S:1:pos:R:3 #=T CELL(abcABC):=T 1.889726e+02=T 90.00000=T Traj:=T positionsangstrom=T Step:=T 0=T Bead:=T pbc="F F F"
C      -43.12700000     -31.79510000     -74.15500000
C      -44.40930000     -32.32430000     -74.43020000
C      -45.54760000     -31.73900000     -73.88530000
C      -45.44860000     -30.55880000     -73.06850000
C      -44.13190000     -30.03290000     -72.80640000
C      -43.04470000     -30.63000000     -73.40180000
H      -42.21730000     -32.09910000     -74.63040000
H      -46.46360000     -32.18650000     -74.11830000
H      -43.99480000     -29.06470000     -72.35060000
H      -42.11560000     -30.08410000     -73.27800000
C      -46.75170000     -29.88170000     -72.58100000
H      -47.25850000     -29.29920000     -73.37830000
H      -46.50140000     -29.15820000     -71.85380000
C      -44.43150000     -33.65710000     -75.17730000
H      -44.81050000     -33.49270000     -76.21820000
H      -43.41160000     -33.98200000     -75.21480000
S      -48.19740000     -30.83440000     -71.93390000
S      -45.65700000     -34.93600000     -74.52100000
C      -47.31130000     -31.61060000     -70.42630000
H      -46.44730000     -30.96460000     -70.16860000
H      -47.99570000     -31.70610000     -69.55820000
C      -44.71470000     -35.28030000     -72.91250000
H      -44.28050000     -34.34140000     -72.57440000
H      -43.96210000     -36.03120000     -73.22110000
C      -45.66090000     -35.82820000     -71.78640000
H      -46.51800000     -35.20760000     -71.73050000
H      -45.96970000     -36.87020000     -71.97870000
C      -46.68900000     -33.00150000     -70.67990000
H      -46.10380000     -32.97300000     -71.56870000
H      -47.48570000     -33.62690000     -71.05570000
C      -46.00900000     -33.55700000     -69.45940000
C      -45.88270000     -32.87670000     -68.26010000
C      -45.19260000     -34.74210000     -69.43820000
H      -46.32160000     -31.93590000     -68.04190000
C      -44.55800000     -34.98940000     -68.22650000
C      -45.00120000     -35.77530000     -70.43520000
C      -44.19890000     -36.78240000     -69.94010000
S      -44.86400000     -33.73710000     -67.08170000
S      -43.78410000     -36.51660000     -68.20950000
H      -43.87260000     -37.59970000     -70.57110000
