40
Properties=species:S:1:pos:R:3 #=T CELL(abcABC):=T 1.889726e+02=T 90.00000=T Traj:=T positionsangstrom=T Step:=T 0=T Bead:=T pbc="F F F"
C      -43.19720000     -32.07120000     -73.34120000
C      -44.26780000     -32.29750000     -74.19290000
C      -45.45970000     -31.57710000     -74.05400000
C      -45.64130000     -30.55880000     -73.10120000
C      -44.52750000     -30.23330000     -72.31780000
C      -43.26540000     -30.86150000     -72.56010000
H      -42.34630000     -32.69840000     -73.47420000
H      -46.40450000     -31.84390000     -74.58280000
H      -44.66130000     -29.53190000     -71.49870000
H      -42.31750000     -30.74240000     -71.90900000
C      -46.93780000     -29.88100000     -72.93820000
H      -47.45830000     -29.58030000     -73.86220000
H      -46.85960000     -28.97310000     -72.38920000
C      -44.15550000     -33.56850000     -75.10240000
H      -44.61120000     -33.25050000     -76.07160000
H      -43.11870000     -33.97580000     -75.16390000
S      -48.18250000     -31.01170000     -72.12690000
S      -45.30940000     -34.92450000     -74.41240000
C      -47.38330000     -31.67220000     -70.68960000
H      -46.72390000     -30.93680000     -70.16880000
H      -48.14470000     -31.97320000     -70.00550000
C      -44.60260000     -35.23920000     -72.74440000
H      -44.24550000     -34.31500000     -72.32880000
H      -43.72410000     -35.88190000     -72.84580000
C      -45.60530000     -35.95850000     -71.91550000
H      -46.55910000     -35.43430000     -72.09520000
H      -45.61130000     -36.98520000     -72.27500000
C      -46.49260000     -32.82360000     -71.00410000
H      -45.78170000     -32.61800000     -71.78270000
H      -46.99830000     -33.72870000     -71.35770000
C      -45.69070000     -33.30130000     -69.77790000
C      -45.42030000     -32.54820000     -68.67220000
C      -45.17290000     -34.66910000     -69.64030000
H      -45.67580000     -31.51100000     -68.46360000
C      -44.67870000     -34.89400000     -68.37410000
C      -45.21890000     -35.89690000     -70.43690000
C      -44.91640000     -36.97610000     -69.67760000
S      -44.62550000     -33.48540000     -67.34090000
S      -44.18110000     -36.57290000     -68.10060000
H      -44.74360000     -37.99400000     -70.08230000
