40
Properties=species:S:1:pos:R:3 #=T CELL(abcABC):=T 1.889726e+02=T 90.00000=T Traj:=T positionsangstrom=T Step:=T 0=T Bead:=T pbc="F F F"
C      -43.48110000     -31.77340000     -74.39540000
C      -44.76900000     -32.30690000     -74.55270000
C      -45.90330000     -31.53380000     -74.08560000
C      -45.62760000     -30.39640000     -73.31470000
C      -44.30030000     -29.88110000     -73.15940000
C      -43.25790000     -30.58060000     -73.74180000
H      -42.63250000     -32.35730000     -74.72290000
H      -46.92390000     -31.86900000     -74.28550000
H      -44.01760000     -29.09170000     -72.44570000
H      -42.27600000     -30.17940000     -73.64150000
C      -46.73360000     -29.67670000     -72.58690000
H      -47.15130000     -29.04370000     -73.36380000
H      -46.24200000     -29.07100000     -71.77320000
C      -44.94090000     -33.68390000     -75.25720000
H      -45.57690000     -33.53080000     -76.09530000
H      -43.98270000     -34.13760000     -75.52880000
S      -47.98870000     -30.73000000     -71.79120000
S      -45.63860000     -35.13620000     -74.37630000
C      -46.83940000     -31.49050000     -70.51550000
H      -45.85470000     -31.02200000     -70.58090000
H      -47.36880000     -31.28560000     -69.52980000
C      -44.83160000     -35.02730000     -72.74120000
H      -44.83050000     -33.96580000     -72.36110000
H      -43.81060000     -35.45470000     -72.78530000
C      -45.60660000     -35.93990000     -71.67660000
H      -46.64560000     -35.53560000     -71.51700000
H      -45.80160000     -36.96810000     -71.92370000
C      -46.71280000     -33.06550000     -70.57070000
H      -46.08690000     -33.20250000     -71.43770000
H      -47.63500000     -33.54090000     -70.75340000
C      -45.98820000     -33.55090000     -69.32490000
C      -46.03780000     -32.99110000     -68.05760000
C      -45.15970000     -34.81610000     -69.39080000
H      -46.49280000     -32.06310000     -67.68890000
C      -44.48570000     -35.08770000     -68.21020000
C      -44.91830000     -35.85470000     -70.33870000
C      -44.07400000     -36.87370000     -69.93110000
S      -44.89310000     -33.93070000     -66.99460000
S      -43.36160000     -36.44650000     -68.30990000
H      -43.58460000     -37.67020000     -70.49190000
