40
Properties=species:S:1:pos:R:3 #=T CELL(abcABC):=T 1.889726e+02=T 90.00000=T Traj:=T positionsangstrom=T Step:=T 0=T Bead:=T pbc="F F F"
C      -42.83980000     -31.76550000     -73.74010000
C      -44.01920000     -32.26100000     -74.27070000
C      -45.27420000     -31.57160000     -74.09640000
C      -45.36710000     -30.60960000     -73.11060000
C      -44.18280000     -30.23310000     -72.40710000
C      -42.87640000     -30.65950000     -72.79900000
H      -41.90090000     -32.31500000     -74.13230000
H      -46.07410000     -31.90930000     -74.73050000
H      -44.35400000     -29.45440000     -71.73720000
H      -41.99230000     -30.26360000     -72.37050000
C      -46.69070000     -29.92850000     -72.87770000
H      -46.92680000     -29.44580000     -73.82170000
H      -46.62640000     -29.17350000     -72.08400000
C      -43.91170000     -33.57110000     -75.12770000
H      -44.13970000     -33.37960000     -76.16730000
H      -42.89860000     -33.92440000     -75.11730000
S      -48.09770000     -30.95910000     -72.38300000
S      -44.97400000     -34.91730000     -74.43870000
C      -47.58100000     -31.60400000     -70.76350000
H      -46.90890000     -30.83600000     -70.41400000
H      -48.49830000     -31.59290000     -70.11450000
C      -44.39820000     -34.94780000     -72.67400000
H      -44.40490000     -33.96130000     -72.24280000
H      -43.34750000     -35.23430000     -72.63760000
C      -45.33810000     -35.87350000     -71.88120000
H      -46.38870000     -35.44260000     -72.04590000
H      -45.29760000     -36.94960000     -72.25570000
C      -46.88960000     -32.89450000     -70.88940000
H      -46.12790000     -32.66560000     -71.64670000
H      -47.58280000     -33.54880000     -71.40580000
C      -46.31450000     -33.59990000     -69.62820000
C      -46.52660000     -33.05430000     -68.38890000
C      -45.48110000     -34.76210000     -69.49620000
H      -47.08710000     -32.15350000     -68.17450000
C      -45.02700000     -34.98360000     -68.20320000
C      -44.91470000     -35.71450000     -70.41860000
C      -44.22110000     -36.72390000     -69.78550000
S      -45.66720000     -33.90720000     -67.03180000
S      -43.90540000     -36.37770000     -68.09410000
H      -43.72970000     -37.64020000     -70.10210000
