40
Properties=species:S:1:pos:R:3 #=T CELL(abcABC):=T 1.889726e+02=T 90.00000=T Traj:=T positionsangstrom=T Step:=T 0=T Bead:=T pbc="F F F"
C      -43.15100000     -31.93080000     -73.40880000
C      -44.16420000     -32.34980000     -74.23070000
C      -45.36250000     -31.63080000     -74.15650000
C      -45.54720000     -30.57860000     -73.25370000
C      -44.44130000     -30.15250000     -72.42210000
C      -43.28860000     -30.90720000     -72.43230000
H      -42.27330000     -32.46230000     -73.27370000
H      -46.20530000     -31.95450000     -74.74100000
H      -44.49800000     -29.33250000     -71.61290000
H      -42.57050000     -30.47270000     -71.74060000
C      -46.91740000     -29.88560000     -73.13770000
H      -47.38970000     -29.71770000     -74.13960000
H      -46.84320000     -28.94500000     -72.52090000
C      -43.99560000     -33.53640000     -75.11110000
H      -44.16560000     -33.40480000     -76.23150000
H      -42.96030000     -33.79820000     -75.01360000
S      -48.25280000     -31.03890000     -72.43080000
S      -44.98290000     -34.97300000     -74.45500000
C      -47.28180000     -31.52410000     -70.81400000
H      -46.60680000     -30.71020000     -70.76430000
H      -48.07170000     -31.45520000     -70.03820000
C      -44.26510000     -35.23070000     -72.82630000
H      -43.82000000     -34.24440000     -72.55980000
H      -43.38970000     -35.92130000     -72.84390000
C      -45.26590000     -35.88770000     -71.88560000
H      -46.27130000     -35.39230000     -71.98080000
H      -45.31750000     -36.97300000     -72.18170000
C      -46.69750000     -32.92110000     -70.93160000
H      -45.88310000     -32.76860000     -71.71760000
H      -47.44580000     -33.60880000     -71.32760000
C      -45.99610000     -33.40570000     -69.67730000
C      -46.09150000     -32.72930000     -68.50610000
C      -45.24460000     -34.64200000     -69.54440000
H      -46.71890000     -31.90510000     -68.27440000
C      -44.83340000     -34.89820000     -68.21280000
C      -44.85350000     -35.79590000     -70.36520000
C      -44.21360000     -36.80520000     -69.62690000
S      -45.45720000     -33.65490000     -67.10560000
S      -44.04270000     -36.44640000     -67.96840000
H      -43.84480000     -37.70890000     -70.02960000
