40
Properties=species:S:1:pos:R:3 #=T CELL(abcABC):=T 1.889726e+02=T 90.00000=T Traj:=T positionsangstrom=T Step:=T 0=T Bead:=T pbc="F F F"
C      -42.94500000     -31.88450000     -73.53980000
C      -44.07850000     -32.30860000     -74.22220000
C      -45.31640000     -31.69820000     -74.06020000
C      -45.40290000     -30.55850000     -73.22070000
C      -44.31390000     -30.08390000     -72.58010000
C      -43.09330000     -30.81510000     -72.71140000
H      -42.02580000     -32.43470000     -73.78540000
H      -46.20400000     -32.18670000     -74.48790000
H      -44.50400000     -29.33350000     -71.87270000
H      -42.22670000     -30.51250000     -72.11370000
C      -46.68880000     -29.84320000     -73.05370000
H      -47.04960000     -29.49950000     -74.06150000
H      -46.61310000     -29.07750000     -72.28320000
C      -43.96520000     -33.45740000     -75.14370000
H      -44.55310000     -33.23710000     -76.00590000
H      -42.98080000     -33.78640000     -75.56980000
S      -48.10370000     -30.94570000     -72.35350000
S      -44.90750000     -34.90140000     -74.48640000
C      -47.34740000     -31.61750000     -70.77070000
H      -46.48410000     -30.98760000     -70.43150000
H      -48.16230000     -31.58850000     -70.03250000
C      -44.41040000     -35.00220000     -72.79150000
H      -44.26920000     -33.99760000     -72.37340000
H      -43.34870000     -35.45220000     -72.75600000
C      -45.33560000     -35.87280000     -71.86460000
H      -46.40370000     -35.74270000     -72.05370000
H      -45.28080000     -36.93720000     -72.15490000
C      -46.83670000     -32.97320000     -70.91840000
H      -46.09660000     -32.99920000     -71.72180000
H      -47.63350000     -33.60230000     -71.35150000
C      -46.34540000     -33.55050000     -69.61280000
C      -46.42580000     -33.04560000     -68.35180000
C      -45.42150000     -34.75490000     -69.48490000
H      -46.88840000     -32.05870000     -68.15760000
C      -45.12470000     -35.00920000     -68.14980000
C      -44.97590000     -35.79460000     -70.38670000
C      -44.09340000     -36.64740000     -69.81420000
S      -45.60750000     -33.87910000     -66.99030000
S      -43.92090000     -36.34060000     -68.06670000
H      -43.70760000     -37.55900000     -70.18560000
