40
Properties=species:S:1:pos:R:3 #=T CELL(abcABC):=T 1.889726e+02=T 90.00000=T Traj:=T positionsangstrom=T Step:=T 0=T Bead:=T pbc="F F F"
C      -42.75510000     -31.83120000     -73.21910000
C      -43.74680000     -32.14860000     -74.14600000
C      -44.93040000     -31.38690000     -74.11610000
C      -45.18630000     -30.37550000     -73.14850000
C      -44.22470000     -30.23870000     -72.13350000
C      -42.99830000     -30.86230000     -72.28630000
H      -41.87990000     -32.35210000     -73.29120000
H      -45.75200000     -31.76610000     -74.78020000
H      -44.35040000     -29.63050000     -71.23310000
H      -42.17720000     -30.69020000     -71.53300000
C      -46.47310000     -29.69690000     -73.04090000
H      -46.83960000     -29.35310000     -74.04810000
H      -46.43830000     -28.76670000     -72.45500000
C      -43.57230000     -33.30430000     -75.02110000
H      -43.75600000     -32.99870000     -76.05100000
H      -42.59630000     -33.83230000     -74.90380000
S      -47.79000000     -30.70120000     -72.22580000
S      -44.88130000     -34.65940000     -74.65980000
C      -47.17740000     -31.32740000     -70.64690000
H      -46.52890000     -30.53270000     -70.22660000
H      -48.05950000     -31.34800000     -70.00940000
C      -44.30940000     -35.38290000     -73.05400000
H      -43.66290000     -34.65670000     -72.60770000
H      -43.70590000     -36.29090000     -73.09050000
C      -45.58410000     -35.45970000     -72.14380000
H      -46.16490000     -34.52570000     -72.26280000
H      -46.20780000     -36.26020000     -72.45140000
C      -46.62430000     -32.77130000     -70.74610000
H      -45.81650000     -32.76680000     -71.50100000
H      -47.48900000     -33.34650000     -71.10000000
C      -46.17620000     -33.50920000     -69.50320000
C      -46.37420000     -33.05370000     -68.20290000
C      -45.62460000     -34.79140000     -69.60430000
H      -46.82840000     -32.17590000     -67.82990000
C      -45.35220000     -35.30100000     -68.31380000
C      -45.24390000     -35.75240000     -70.61270000
C      -44.68810000     -36.85870000     -70.11770000
S      -45.70990000     -34.20330000     -66.97010000
S      -44.61870000     -36.88670000     -68.31760000
H      -44.39910000     -37.79650000     -70.62080000
