40
Properties=species:S:1:pos:R:3 #=T CELL(abcABC):=T 1.889726e+02=T 90.00000=T Traj:=T positionsangstrom=T Step:=T 0=T Bead:=T pbc="F F F"
C      -42.62460000     -31.54500000     -72.72460000
C      -43.52100000     -31.86600000     -73.72740000
C      -44.77610000     -31.24000000     -73.74810000
C      -45.12990000     -30.28220000     -72.77540000
C      -44.15560000     -29.87020000     -71.82270000
C      -42.92580000     -30.51830000     -71.84400000
H      -41.66510000     -31.99560000     -72.76590000
H      -45.50490000     -31.41120000     -74.57520000
H      -44.27200000     -29.09760000     -71.14340000
H      -42.18980000     -30.15310000     -71.07470000
C      -46.46190000     -29.53010000     -72.92960000
H      -46.63980000     -29.22040000     -73.96310000
H      -46.39620000     -28.67590000     -72.27030000
C      -43.15700000     -32.93960000     -74.76670000
H      -43.40730000     -32.57610000     -75.75700000
H      -42.08770000     -33.03360000     -74.73930000
S      -47.83680000     -30.74470000     -72.28690000
S      -44.04330000     -34.51220000     -74.39240000
C      -47.06560000     -31.47760000     -70.76160000
H      -46.16180000     -30.87500000     -70.47360000
H      -47.68880000     -31.33830000     -69.84820000
C      -44.12470000     -34.69860000     -72.54250000
H      -44.24580000     -33.78190000     -71.98040000
H      -43.19540000     -35.13250000     -72.20910000
C      -45.25850000     -35.66310000     -72.31080000
H      -46.21140000     -35.15770000     -72.68430000
H      -44.97580000     -36.58400000     -72.86110000
C      -46.83570000     -32.96870000     -71.08220000
H      -46.02430000     -33.01120000     -71.75700000
H      -47.73160000     -33.41900000     -71.52800000
C      -46.46300000     -33.70330000     -69.85240000
C      -46.47430000     -33.15850000     -68.60600000
C      -45.96000000     -35.07990000     -69.87260000
H      -46.52340000     -32.14080000     -68.37230000
C      -45.79390000     -35.58430000     -68.60280000
C      -45.48980000     -36.00380000     -70.84930000
C      -45.14400000     -37.20830000     -70.26620000
S      -45.87090000     -34.30170000     -67.38450000
S      -45.22600000     -37.26820000     -68.51240000
H      -44.64590000     -38.03710000     -70.75450000
