40
Properties=species:S:1:pos:R:3 #=T CELL(abcABC):=T 1.889726e+02=T 90.00000=T Traj:=T positionsangstrom=T Step:=T 0=T Bead:=T pbc="F F F"
C      -42.84290000     -31.90210000     -73.25690000
C      -43.97880000     -32.24600000     -74.08020000
C      -45.16590000     -31.44310000     -73.95270000
C      -45.22290000     -30.44490000     -72.94310000
C      -44.14550000     -30.18910000     -72.17050000
C      -42.94240000     -30.87530000     -72.32330000
H      -41.83590000     -32.37420000     -73.56590000
H      -46.01010000     -31.57090000     -74.61840000
H      -44.14430000     -29.39100000     -71.46600000
H      -42.03820000     -30.44600000     -71.94240000
C      -46.43590000     -29.53210000     -72.88590000
H      -46.73500000     -29.01490000     -73.83020000
H      -46.24240000     -28.77120000     -72.06870000
C      -43.96930000     -33.42150000     -75.06840000
H      -44.42450000     -33.13150000     -76.03880000
H      -42.90030000     -33.59230000     -75.23300000
S      -47.92790000     -30.61770000     -72.33470000
S      -44.94110000     -34.84500000     -74.47340000
C      -47.34080000     -31.44950000     -70.72970000
H      -46.60060000     -30.83300000     -70.20620000
H      -48.21590000     -31.53130000     -70.08120000
C      -44.44940000     -34.96110000     -72.73350000
H      -44.59520000     -33.94240000     -72.35440000
H      -43.42560000     -35.22230000     -72.62280000
C      -45.32760000     -35.96360000     -71.99380000
H      -46.35310000     -35.71250000     -72.11400000
H      -45.10120000     -36.93030000     -72.47800000
C      -46.70880000     -32.88180000     -71.03370000
H      -45.89450000     -32.76280000     -71.79160000
H      -47.37350000     -33.64730000     -71.43070000
C      -46.08910000     -33.55490000     -69.80310000
C      -46.15470000     -32.98090000     -68.55510000
C      -45.52430000     -34.88460000     -69.62700000
H      -46.51260000     -31.99870000     -68.34970000
C      -45.22500000     -35.19160000     -68.32670000
C      -45.13110000     -35.98920000     -70.50350000
C      -44.42480000     -37.01820000     -69.94550000
S      -45.64620000     -33.89100000     -67.22270000
S      -44.47770000     -36.77940000     -68.17270000
H      -44.01880000     -37.86620000     -70.32220000
