40
Properties=species:S:1:pos:R:3 #=T CELL(abcABC):=T 1.889726e+02=T 90.00000=T Traj:=T positionsangstrom=T Step:=T 0=T Bead:=T pbc="F F F"
C      -42.90080000     -31.98350000     -73.14420000
C      -43.91820000     -32.18280000     -74.08210000
C      -45.08020000     -31.35950000     -74.08290000
C      -45.20120000     -30.37170000     -73.05960000
C      -44.11860000     -30.20690000     -72.20720000
C      -42.97010000     -30.89700000     -72.30370000
H      -42.09450000     -32.72740000     -73.11210000
H      -45.85020000     -31.53220000     -74.79970000
H      -44.27460000     -29.45360000     -71.45760000
H      -42.17580000     -30.71460000     -71.50700000
C      -46.52370000     -29.64630000     -72.89080000
H      -46.78100000     -29.32850000     -73.86790000
H      -46.41760000     -28.82890000     -72.17260000
C      -43.83500000     -33.24110000     -75.20470000
H      -44.25780000     -32.87380000     -76.15140000
H      -42.89500000     -33.66530000     -75.52860000
S      -47.85170000     -30.78970000     -72.27920000
S      -44.87130000     -34.70660000     -74.68800000
C      -47.10650000     -31.39570000     -70.68600000
H      -46.27360000     -30.78290000     -70.39620000
H      -47.88690000     -31.36350000     -69.89640000
C      -44.34680000     -35.14820000     -72.85230000
H      -44.10550000     -34.17670000     -72.37630000
H      -43.49810000     -35.83560000     -72.81740000
C      -45.55190000     -35.76370000     -72.13720000
H      -46.49510000     -35.32750000     -72.42100000
H      -45.75840000     -36.83190000     -72.50910000
C      -46.49800000     -32.83830000     -70.85140000
H      -45.66800000     -32.89140000     -71.54790000
H      -47.24590000     -33.50250000     -71.36010000
C      -46.13790000     -33.48690000     -69.60670000
C      -46.38900000     -33.04660000     -68.33570000
C      -45.51750000     -34.78830000     -69.57360000
H      -46.78660000     -32.11320000     -68.09060000
C      -45.22400000     -35.21480000     -68.24360000
C      -45.26810000     -35.85030000     -70.62820000
C      -44.83340000     -36.95650000     -69.96000000
S      -45.64760000     -34.05300000     -67.01800000
S      -44.48240000     -36.75940000     -68.25310000
H      -44.34160000     -37.77090000     -70.38140000
