40
Properties=species:S:1:pos:R:3 #=T CELL(abcABC):=T 1.889726e+02=T 90.00000=T Traj:=T positionsangstrom=T Step:=T 0=T Bead:=T pbc="F F F"
C      -42.52870000     -31.66290000     -72.13630000
C      -43.33820000     -31.97860000     -73.29060000
C      -44.45670000     -31.19420000     -73.55310000
C      -44.87250000     -30.27230000     -72.63140000
C      -44.15600000     -29.96660000     -71.45590000
C      -42.95090000     -30.66100000     -71.23380000
H      -41.55380000     -32.17890000     -71.89450000
H      -44.96290000     -31.31300000     -74.41860000
H      -44.50430000     -29.13730000     -70.80170000
H      -42.30210000     -30.50630000     -70.42690000
C      -46.12270000     -29.56000000     -72.98480000
H      -46.19630000     -29.26130000     -74.01060000
H      -46.18180000     -28.68060000     -72.32430000
C      -42.97620000     -33.05280000     -74.28360000
H      -42.83990000     -32.63120000     -75.36640000
H      -41.99320000     -33.54690000     -74.07660000
S      -47.65170000     -30.66460000     -72.57060000
S      -44.41530000     -34.24770000     -74.60630000
C      -47.27240000     -31.54360000     -70.94640000
H      -46.91210000     -30.88780000     -70.16520000
H      -48.27300000     -31.93250000     -70.66540000
C      -44.21920000     -35.09840000     -72.88620000
H      -43.95320000     -34.34360000     -72.18570000
H      -43.41670000     -35.83930000     -72.94830000
C      -45.51030000     -35.85520000     -72.40600000
H      -46.40930000     -35.34700000     -72.63840000
H      -45.51230000     -36.92690000     -72.88300000
C      -46.29380000     -32.67340000     -71.13490000
H      -45.32370000     -32.18400000     -71.33420000
H      -46.73850000     -33.23880000     -71.92690000
C      -46.23470000     -33.56690000     -69.95370000
C      -46.31660000     -33.11220000     -68.66710000
C      -45.93360000     -34.99110000     -69.97580000
H      -46.61500000     -32.06940000     -68.34270000
C      -45.93110000     -35.55230000     -68.68430000
C      -45.53640000     -36.02890000     -70.89160000
C      -45.24680000     -37.26450000     -70.36970000
S      -46.21280000     -34.43400000     -67.43770000
S      -45.27980000     -37.14040000     -68.60770000
H      -44.79700000     -38.12580000     -70.85860000
