40
Properties=species:S:1:pos:R:3 #=T CELL(abcABC):=T 1.889726e+02=T 90.00000=T Traj:=T positionsangstrom=T Step:=T 0=T Bead:=T pbc="F F F"
C      -42.34860000     -31.75150000     -72.52420000
C      -43.23160000     -31.83410000     -73.58200000
C      -44.37790000     -30.99910000     -73.66610000
C      -44.69980000     -30.20920000     -72.60840000
C      -43.82520000     -30.11610000     -71.54710000
C      -42.61700000     -30.84220000     -71.54330000
H      -41.57020000     -32.42820000     -72.35990000
H      -45.14430000     -31.09190000     -74.50100000
H      -44.11250000     -29.48970000     -70.73050000
H      -41.99690000     -30.78690000     -70.62700000
C      -45.95570000     -29.42280000     -72.47150000
H      -46.12940000     -28.62180000     -73.25650000
H      -45.91360000     -28.89550000     -71.52720000
C      -42.94170000     -32.94060000     -74.53430000
H      -42.95340000     -32.64910000     -75.60480000
H      -41.88810000     -33.34480000     -74.32890000
S      -47.47220000     -30.46510000     -72.49610000
S      -44.16430000     -34.35900000     -74.60590000
C      -47.09440000     -31.54520000     -71.02120000
H      -46.03350000     -31.52210000     -70.90420000
H      -47.50240000     -31.04940000     -70.10720000
C      -44.35470000     -34.74500000     -72.75810000
H      -44.46430000     -33.80030000     -72.15440000
H      -43.34380000     -35.11390000     -72.44930000
C      -45.45950000     -35.70200000     -72.40190000
H      -46.42740000     -35.21950000     -72.84140000
H      -45.31430000     -36.57500000     -73.03720000
C      -47.49870000     -33.06680000     -71.01140000
H      -47.43260000     -33.54320000     -71.97860000
H      -48.58470000     -33.22830000     -70.86160000
C      -46.75980000     -33.80430000     -69.88370000
C      -46.90240000     -33.36270000     -68.55570000
C      -46.15130000     -35.12480000     -69.96040000
H      -47.32040000     -32.42070000     -68.30030000
C      -45.90420000     -35.56500000     -68.63530000
C      -45.53640000     -35.97810000     -70.94500000
C      -45.07300000     -37.10450000     -70.37830000
S      -46.37330000     -34.52970000     -67.33980000
S      -45.16520000     -37.11710000     -68.60130000
H      -44.63510000     -37.93110000     -70.93560000
