40
Properties=species:S:1:pos:R:3 #=T CELL(abcABC):=T 1.889726e+02=T 90.00000=T Traj:=T positionsangstrom=T Step:=T 0=T Bead:=T pbc="F F F"
C      -46.63620000     -35.31190000     -68.06010000
C      -47.32060000     -34.33160000     -68.85190000
C      -46.93540000     -33.02170000     -68.85290000
C      -45.87760000     -32.58220000     -68.00190000
C      -45.15750000     -33.51320000     -67.24960000
C      -45.57350000     -34.90490000     -67.26270000
H      -46.87260000     -36.34490000     -68.16970000
H      -47.41890000     -32.16800000     -69.37340000
H      -44.40130000     -33.21710000     -66.53880000
H      -44.87570000     -35.60270000     -66.86530000
C      -45.57340000     -31.15870000     -67.84360000
H      -44.68990000     -30.98360000     -67.24570000
H      -46.37800000     -30.70780000     -67.34420000
C      -48.61250000     -34.74940000     -69.61250000
H      -48.69040000     -35.87700000     -69.58270000
H      -49.44440000     -34.32920000     -69.07730000
S      -45.34290000     -30.29250000     -69.52430000
S      -48.99900000     -34.05900000     -71.31010000
C      -44.17950000     -31.49310000     -70.28810000
H      -43.24880000     -31.11260000     -69.86820000
H      -44.33610000     -32.53240000     -70.08140000
C      -47.64160000     -34.73730000     -72.29640000
H      -47.88530000     -34.74740000     -73.41000000
H      -47.46130000     -35.81670000     -72.14960000
C      -46.42190000     -33.89820000     -72.03280000
H      -46.58340000     -32.83700000     -72.29560000
H      -46.10110000     -34.08130000     -70.97230000
C      -44.24410000     -31.21810000     -71.80060000
H      -43.87970000     -30.23700000     -71.91920000
H      -45.33720000     -31.04500000     -72.02080000
C      -43.59820000     -32.17300000     -72.71750000
C      -42.43510000     -31.85190000     -73.38060000
C      -44.08660000     -33.49330000     -73.09940000
H      -41.80740000     -30.92890000     -73.13710000
C      -43.18970000     -34.09460000     -74.04990000
C      -45.23940000     -34.29840000     -72.89410000
C      -45.21600000     -35.42260000     -73.71270000
S      -41.90750000     -33.10820000     -74.53540000
S      -43.77170000     -35.61010000     -74.70950000
H      -45.81310000     -36.34350000     -73.50640000
