40
Properties=species:S:1:pos:R:3 #=T CELL(abcABC):=T 1.889726e+02=T 90.00000=T Traj:=T positionsangstrom=T Step:=T 0=T Bead:=T pbc="F F F"
C      -41.39800000     -34.80630000     -70.90500000
C      -41.63760000     -33.40550000     -70.63880000
C      -42.01370000     -32.56090000     -71.70280000
C      -42.17850000     -33.01740000     -72.97110000
C      -41.88040000     -34.37330000     -73.25650000
C      -41.49000000     -35.23020000     -72.22970000
H      -41.04840000     -35.49060000     -70.09150000
H      -42.26570000     -31.59030000     -71.53660000
H      -42.00770000     -34.71060000     -74.22540000
H      -41.14290000     -36.22320000     -72.54650000
C      -42.68950000     -32.09610000     -74.14860000
H      -42.95220000     -32.64240000     -75.04710000
H      -41.95570000     -31.19230000     -74.40440000
C      -41.56200000     -32.96940000     -69.14920000
H      -41.08440000     -33.79190000     -68.58850000
H      -40.83860000     -32.19100000     -69.03660000
S      -44.21890000     -31.23690000     -73.77420000
S      -43.26600000     -32.29100000     -68.58710000
C      -45.45630000     -32.59650000     -73.46360000
H      -45.72830000     -33.11320000     -74.39170000
H      -44.89950000     -33.35880000     -72.88420000
C      -44.46510000     -33.59170000     -68.79430000
H      -45.27060000     -33.34930000     -68.07300000
H      -44.18050000     -34.64590000     -68.60520000
C      -45.19900000     -33.59590000     -70.14870000
H      -45.08540000     -32.62470000     -70.65520000
H      -44.73820000     -34.35140000     -70.70170000
C      -46.57360000     -31.83690000     -72.67220000
H      -47.00880000     -31.07970000     -73.34120000
H      -46.11100000     -31.35080000     -71.82320000
C      -47.64830000     -32.79280000     -72.15280000
C      -48.85670000     -32.91090000     -72.91690000
C      -47.67320000     -33.71380000     -71.12540000
H      -49.17210000     -32.19800000     -73.57780000
C      -48.91470000     -34.35830000     -70.89460000
C      -46.76610000     -33.98120000     -70.04460000
C      -47.25910000     -34.89070000     -69.03450000
S      -50.00880000     -34.02630000     -72.21020000
S      -48.91170000     -35.32300000     -69.41140000
H      -46.75890000     -35.49400000     -68.26510000
