40
Properties=species:S:1:pos:R:3 #=T CELL(abcABC):=T 1.889726e+02=T 90.00000=T Traj:=T positionsangstrom=T Step:=T 0=T Bead:=T pbc="F F F"
C      -41.69120000     -34.43170000     -70.22300000
C      -41.91070000     -33.05800000     -70.16310000
C      -42.29450000     -32.35070000     -71.30000000
C      -42.25460000     -32.93380000     -72.55840000
C      -41.94310000     -34.33330000     -72.58420000
C      -41.69620000     -35.07290000     -71.43480000
H      -41.48580000     -35.05110000     -69.39800000
H      -42.57670000     -31.30730000     -71.18450000
H      -41.95870000     -34.85350000     -73.57140000
H      -41.55220000     -36.16130000     -71.51790000
C      -42.49670000     -32.15720000     -73.83070000
H      -42.17170000     -32.81150000     -74.62310000
H      -41.73390000     -31.36430000     -73.84860000
C      -41.93930000     -32.39520000     -68.83920000
H      -41.61840000     -33.16830000     -68.12130000
H      -41.20750000     -31.61420000     -68.83530000
S      -44.14900000     -31.34220000     -74.17730000
S      -43.60890000     -31.72530000     -68.30510000
C      -45.32260000     -32.64920000     -73.64610000
H      -45.64470000     -33.44190000     -74.35760000
H      -44.86740000     -33.16880000     -72.84550000
C      -44.72770000     -33.16230000     -68.64440000
H      -45.57340000     -32.94840000     -67.98580000
H      -44.14380000     -34.04200000     -68.26950000
C      -45.36800000     -33.17250000     -69.99560000
H      -45.51370000     -32.10490000     -70.24560000
H      -44.63750000     -33.52650000     -70.77110000
C      -46.62050000     -32.02950000     -73.07380000
H      -47.08130000     -31.39930000     -73.80590000
H      -46.37250000     -31.33870000     -72.22580000
C      -47.58020000     -33.13100000     -72.64000000
C      -48.70550000     -33.50030000     -73.38660000
C      -47.46900000     -33.90430000     -71.36100000
H      -48.97380000     -33.02990000     -74.30750000
C      -48.55970000     -34.77000000     -71.22440000
C      -46.66490000     -33.92490000     -70.21720000
C      -47.06550000     -34.89550000     -69.30490000
S      -49.70790000     -34.63740000     -72.57660000
S      -48.64840000     -35.58880000     -69.72060000
H      -46.67440000     -35.00760000     -68.24950000
