40
Properties=species:S:1:pos:R:3 #=T CELL(abcABC):=T 1.889726e+02=T 90.00000=T Traj:=T positionsangstrom=T Step:=T 0=T Bead:=T pbc="F F F"
C      -41.90560000     -34.29300000     -74.61120000
C      -42.60090000     -34.88600000     -73.53410000
C      -42.60590000     -34.38150000     -72.22670000
C      -41.81680000     -33.25980000     -72.00930000
C      -41.19220000     -32.61660000     -73.07870000
C      -41.18980000     -33.13110000     -74.34920000
H      -41.83390000     -34.77200000     -75.55540000
H      -43.23820000     -34.84850000     -71.44240000
H      -40.75780000     -31.62770000     -72.86080000
H      -40.64150000     -32.81020000     -75.16940000
C      -41.70310000     -32.77950000     -70.61590000
H      -40.68310000     -32.43450000     -70.36510000
H      -42.08090000     -33.50120000     -69.90960000
C      -43.66280000     -35.99110000     -73.90590000
H      -43.31410000     -36.78090000     -74.60520000
H      -43.89650000     -36.39360000     -72.95880000
S      -42.78010000     -31.29630000     -70.38090000
S      -45.15650000     -35.18870000     -74.59980000
C      -44.36880000     -32.18900000     -70.10450000
H      -44.45500000     -33.10530000     -70.71080000
H      -44.41280000     -32.44980000     -69.03450000
C      -46.44930000     -35.16760000     -73.25040000
H      -46.09570000     -35.95850000     -72.58280000
H      -47.43880000     -35.43520000     -73.65860000
C      -46.39590000     -33.78390000     -72.41240000
H      -45.32700000     -33.61000000     -72.16270000
H      -46.80270000     -33.04230000     -73.10550000
C      -45.52110000     -31.21240000     -70.35310000
H      -45.72820000     -31.24150000     -71.41500000
H      -45.25570000     -30.18740000     -70.04120000
C      -46.69310000     -31.67680000     -69.58730000
C      -47.38960000     -31.06270000     -68.52390000
C      -47.40180000     -32.90720000     -70.02780000
H      -46.99130000     -30.07290000     -68.20620000
C      -48.50910000     -33.21080000     -69.13040000
C      -47.24760000     -33.83050000     -71.09200000
C      -48.08520000     -34.91710000     -70.93040000
S      -48.67400000     -32.01800000     -67.88040000
S      -49.24240000     -34.76320000     -69.57690000
H      -48.03530000     -35.80060000     -71.52830000
