40
Properties=species:S:1:pos:R:3 #=T CELL(abcABC):=T 1.889726e+02=T 90.00000=T Traj:=T positionsangstrom=T Step:=T 0=T Bead:=T pbc="F F F"
C      -41.89740000     -34.23020000     -74.65190000
C      -42.58270000     -34.83820000     -73.52470000
C      -42.46460000     -34.32060000     -72.23730000
C      -41.72450000     -33.15690000     -71.95950000
C      -41.02250000     -32.61110000     -73.11290000
C      -41.09370000     -33.10580000     -74.35920000
H      -42.01330000     -34.54750000     -75.67450000
H      -42.92840000     -34.88160000     -71.36530000
H      -40.48780000     -31.67360000     -72.92160000
H      -40.45800000     -32.67650000     -75.16480000
C      -41.56050000     -32.53290000     -70.64620000
H      -40.54570000     -32.09970000     -70.48190000
H      -41.81780000     -33.19470000     -69.82400000
C      -43.47800000     -35.98040000     -73.86050000
H      -43.08970000     -36.61040000     -74.71900000
H      -43.62990000     -36.69750000     -73.04620000
S      -42.66520000     -31.00560000     -70.39930000
S      -45.18620000     -35.39450000     -74.51610000
C      -44.20440000     -31.72590000     -69.72520000
H      -44.12590000     -32.78480000     -70.01100000
H      -44.08440000     -31.70640000     -68.62720000
C      -46.16920000     -35.40240000     -72.90400000
H      -45.80390000     -36.26000000     -72.32530000
H      -47.21350000     -35.68210000     -73.14540000
C      -46.28850000     -34.04720000     -72.22260000
H      -45.40500000     -33.65550000     -71.65900000
H      -46.52250000     -33.29860000     -72.97430000
C      -45.56760000     -31.13720000     -70.25690000
H      -45.62200000     -31.24620000     -71.32840000
H      -45.53470000     -30.04760000     -70.00410000
C      -46.73750000     -31.86180000     -69.69620000
C      -47.36300000     -31.21020000     -68.64800000
C      -47.53150000     -33.04410000     -70.12380000
H      -47.01930000     -30.31290000     -68.13230000
C      -48.58450000     -33.31010000     -69.22050000
C      -47.46400000     -33.93990000     -71.19230000
C      -48.39620000     -34.94260000     -71.04400000
S      -48.79970000     -32.08630000     -68.04170000
S      -49.49700000     -34.76950000     -69.68840000
H      -48.54800000     -35.82100000     -71.56690000
