40
Properties=species:S:1:pos:R:3 #=T CELL(abcABC):=T 1.889726e+02=T 90.00000=T Traj:=T positionsangstrom=T Step:=T 0=T Bead:=T pbc="F F F"
C      -41.81160000     -31.08640000     -72.50000000
C      -42.78680000     -31.60020000     -73.42530000
C      -44.09970000     -31.03310000     -73.36810000
C      -44.45770000     -30.05300000     -72.46200000
C      -43.42590000     -29.52190000     -71.59920000
C      -42.14190000     -30.09510000     -71.55810000
H      -40.84820000     -31.62800000     -72.51370000
H      -44.83070000     -31.44720000     -74.02950000
H      -43.73570000     -28.80910000     -70.80400000
H      -41.32980000     -29.67680000     -70.94240000
C      -45.82910000     -29.46170000     -72.29680000
H      -46.09660000     -28.75130000     -73.06020000
H      -45.96720000     -29.06750000     -71.22470000
C      -42.46580000     -32.73630000     -74.41530000
H      -42.54790000     -32.36500000     -75.47050000
H      -41.41550000     -32.88360000     -74.11480000
S      -47.15240000     -30.79240000     -72.42730000
S      -43.62620000     -34.12130000     -74.37320000
C      -46.88570000     -31.84490000     -70.91090000
H      -45.84480000     -32.15010000     -70.81240000
H      -47.30630000     -31.31030000     -70.02900000
C      -44.20240000     -34.31560000     -72.66200000
H      -44.64490000     -33.40370000     -72.30960000
H      -43.26980000     -34.36860000     -71.99360000
C      -45.24280000     -35.39320000     -72.43470000
H      -46.20370000     -35.08150000     -72.81470000
H      -44.98840000     -36.29760000     -72.96560000
C      -47.81960000     -33.11430000     -71.12590000
H      -47.57830000     -33.63660000     -72.11090000
H      -48.88180000     -32.81750000     -70.94490000
C      -47.56700000     -34.20380000     -70.02140000
C      -48.22220000     -34.14720000     -68.84080000
C      -46.46840000     -35.22830000     -70.06140000
H      -49.02900000     -33.46560000     -68.58220000
C      -46.41340000     -35.89220000     -68.83980000
C      -45.47080000     -35.74850000     -70.97130000
C      -44.66540000     -36.71730000     -70.35670000
S      -47.64340000     -35.34000000     -67.68060000
S      -45.10710000     -37.03480000     -68.65730000
H      -43.99390000     -37.42850000     -70.86870000
