40
Properties=species:S:1:pos:R:3 #=T CELL(abcABC):=T 1.889726e+02=T 90.00000=T Traj:=T positionsangstrom=T Step:=T 0=T Bead:=T pbc="F F F"
C      -41.82060000     -31.21850000     -73.07390000
C      -42.96230000     -31.71140000     -73.70920000
C      -44.24060000     -31.14690000     -73.58280000
C      -44.40940000     -30.12890000     -72.63900000
C      -43.23770000     -29.55650000     -72.08180000
C      -41.92910000     -30.10910000     -72.25030000
H      -40.84160000     -31.66600000     -73.20430000
H      -45.05430000     -31.54300000     -74.06150000
H      -43.43250000     -28.69410000     -71.38500000
H      -41.04910000     -29.54970000     -72.02440000
C      -45.76940000     -29.35370000     -72.36970000
H      -46.08310000     -28.67530000     -73.25610000
H      -45.76630000     -28.71860000     -71.51630000
C      -42.65550000     -32.91050000     -74.66220000
H      -42.59240000     -32.56630000     -75.73410000
H      -41.64200000     -33.38200000     -74.52080000
S      -47.25110000     -30.42570000     -71.99240000
S      -44.08240000     -34.21960000     -74.46520000
C      -46.61630000     -31.75870000     -70.89190000
H      -45.63700000     -32.10820000     -71.30210000
H      -46.26290000     -31.32700000     -69.87270000
C      -44.06490000     -34.62070000     -72.67910000
H      -43.93460000     -33.69150000     -72.09430000
H      -43.26950000     -35.23010000     -72.41680000
C      -45.45730000     -35.18990000     -72.29720000
H      -46.10650000     -34.36370000     -72.45710000
H      -45.88850000     -35.96530000     -72.98240000
C      -47.59960000     -33.03760000     -70.78330000
H      -47.52240000     -33.54190000     -71.78580000
H      -48.66450000     -32.63400000     -70.67030000
C      -47.20920000     -33.96390000     -69.69270000
C      -47.77700000     -33.95480000     -68.42570000
C      -46.47000000     -35.19950000     -69.86810000
H      -48.41080000     -33.24970000     -68.00730000
C      -46.42730000     -36.00850000     -68.70790000
C      -45.58910000     -35.75720000     -70.86200000
C      -44.91650000     -36.85690000     -70.44200000
S      -47.35850000     -35.29420000     -67.40300000
S      -45.21340000     -37.25090000     -68.75100000
H      -44.20360000     -37.34570000     -71.13000000
