40
Properties=species:S:1:pos:R:3 #=T CELL(abcABC):=T 1.889726e+02=T 90.00000=T Traj:=T positionsangstrom=T Step:=T 0=T Bead:=T pbc="F F F"
C      -42.05440000     -34.33690000     -70.33350000
C      -42.05250000     -32.98440000     -70.33510000
C      -42.09810000     -32.22970000     -71.55660000
C      -42.21510000     -32.99780000     -72.68550000
C      -42.16030000     -34.39740000     -72.68890000
C      -42.12250000     -35.07710000     -71.48750000
H      -41.99370000     -34.91250000     -69.39860000
H      -42.03780000     -31.15680000     -71.63550000
H      -42.16690000     -34.93800000     -73.61540000
H      -42.12800000     -36.14580000     -71.55240000
C      -42.48520000     -32.32700000     -73.96220000
H      -42.58100000     -33.09070000     -74.74570000
H      -41.68590000     -31.63760000     -74.13120000
C      -41.90400000     -32.22120000     -69.04870000
H      -41.43290000     -32.84950000     -68.29400000
H      -41.35080000     -31.24600000     -69.17590000
S      -44.05120000     -31.35230000     -74.01770000
S      -43.58960000     -31.77050000     -68.50240000
C      -45.33500000     -32.56610000     -73.47340000
H      -45.77510000     -33.05290000     -74.27470000
H      -44.69940000     -33.28380000     -72.89780000
C      -44.56140000     -33.31160000     -68.68830000
H      -45.39750000     -33.15210000     -68.02780000
H      -44.01360000     -34.25450000     -68.35470000
C      -45.22290000     -33.46030000     -70.09520000
H      -45.52190000     -32.49200000     -70.48620000
H      -44.46050000     -33.76250000     -70.82880000
C      -46.44920000     -31.94680000     -72.68880000
H      -46.82540000     -31.07990000     -73.25000000
H      -45.97770000     -31.53340000     -71.85800000
C      -47.51090000     -33.01370000     -72.39680000
C      -48.75740000     -33.03440000     -72.96930000
C      -47.43240000     -33.90240000     -71.29530000
H      -48.95880000     -32.28600000     -73.74800000
C      -48.64200000     -34.60280000     -71.09530000
C      -46.47660000     -34.33360000     -70.25070000
C      -46.96150000     -35.32570000     -69.47030000
S      -49.82790000     -34.21670000     -72.30660000
S      -48.60740000     -35.86620000     -69.88960000
H      -46.42890000     -35.92260000     -68.78010000
