40
Properties=species:S:1:pos:R:3 #=T CELL(abcABC):=T 1.889726e+02=T 90.00000=T Traj:=T positionsangstrom=T Step:=T 0=T Bead:=T pbc="F F F"
C      -41.62050000     -34.35100000     -70.30800000
C      -42.11180000     -33.06210000     -70.26400000
C      -42.39070000     -32.35100000     -71.42450000
C      -42.20810000     -32.94940000     -72.66920000
C      -41.70630000     -34.30170000     -72.65420000
C      -41.45680000     -35.03770000     -71.47910000
H      -41.43970000     -34.84200000     -69.36830000
H      -42.77540000     -31.34060000     -71.36130000
H      -41.47860000     -34.77630000     -73.64300000
H      -41.25880000     -36.11530000     -71.54890000
C      -42.43780000     -32.24230000     -74.00000000
H      -42.38590000     -32.93140000     -74.85180000
H      -41.74890000     -31.39720000     -74.08800000
C      -42.13290000     -32.48590000     -68.89820000
H      -41.77530000     -33.28840000     -68.26060000
H      -41.41300000     -31.60150000     -68.84380000
S      -44.02940000     -31.34980000     -74.00340000
S      -43.66140000     -31.75090000     -68.03880000
C      -45.22460000     -32.76010000     -73.85390000
H      -45.44070000     -33.16830000     -74.82680000
H      -44.66400000     -33.56850000     -73.21760000
C      -45.02930000     -32.95610000     -68.51510000
H      -45.74030000     -32.92590000     -67.75930000
H      -44.56290000     -33.97300000     -68.54330000
C      -45.56450000     -32.81200000     -69.95280000
H      -45.70730000     -31.78090000     -70.31330000
H      -44.81150000     -33.24870000     -70.54430000
C      -46.51100000     -32.24760000     -73.21810000
H      -46.97570000     -31.61980000     -74.03720000
H      -46.30820000     -31.56560000     -72.38500000
C      -47.51730000     -33.25560000     -72.73950000
C      -48.67500000     -33.61060000     -73.46820000
C      -47.52870000     -33.86480000     -71.39520000
H      -48.94290000     -33.25290000     -74.44580000
C      -48.54910000     -34.83680000     -71.23570000
C      -46.79860000     -33.71210000     -70.20370000
C      -47.23080000     -34.61740000     -69.19490000
S      -49.63040000     -34.84220000     -72.60460000
S      -48.63380000     -35.51850000     -69.67660000
H      -46.84570000     -34.58930000     -68.16200000
