40
Properties=species:S:1:pos:R:3 #=T CELL(abcABC):=T 1.889726e+02=T 90.00000=T Traj:=T positionsangstrom=T Step:=T 0=T Bead:=T pbc="F F F"
C      -41.71650000     -34.37830000     -70.37400000
C      -41.80530000     -32.97090000     -70.25240000
C      -41.89590000     -32.19250000     -71.38630000
C      -42.22130000     -32.87750000     -72.60550000
C      -42.30130000     -34.28620000     -72.61180000
C      -42.01640000     -35.06800000     -71.48870000
H      -41.60180000     -34.93610000     -69.41480000
H      -41.89150000     -31.09570000     -71.40060000
H      -42.62480000     -34.74670000     -73.49440000
H      -41.92200000     -36.13500000     -71.57020000
C      -42.38850000     -32.11330000     -73.82860000
H      -42.19840000     -32.70180000     -74.74950000
H      -41.78360000     -31.18020000     -73.91520000
C      -41.91630000     -32.25630000     -68.90890000
H      -41.49240000     -32.78310000     -68.04610000
H      -41.40120000     -31.29000000     -68.90110000
S      -44.13840000     -31.44820000     -74.08080000
S      -43.64670000     -31.83100000     -68.45330000
C      -45.31870000     -32.70800000     -73.42150000
H      -45.57950000     -33.40820000     -74.21080000
H      -44.79880000     -33.29560000     -72.61190000
C      -44.66360000     -33.33340000     -68.70580000
H      -45.44280000     -33.26510000     -67.91720000
H      -44.05490000     -34.18020000     -68.50840000
C      -45.18430000     -33.46530000     -70.10310000
H      -45.02410000     -32.56020000     -70.60950000
H      -44.62980000     -34.26310000     -70.59790000
C      -46.54470000     -31.99600000     -72.87540000
H      -46.93920000     -31.44340000     -73.79800000
H      -46.37100000     -31.27610000     -72.10860000
C      -47.64730000     -33.00160000     -72.45470000
C      -48.82130000     -33.12090000     -73.18020000
C      -47.55690000     -33.84370000     -71.26230000
H      -48.84030000     -32.50370000     -74.10450000
C      -48.69800000     -34.62750000     -71.14180000
C      -46.59510000     -34.07560000     -70.15470000
C      -47.02910000     -35.03680000     -69.31240000
S      -49.76710000     -34.45190000     -72.58190000
S      -48.57800000     -35.75040000     -69.79010000
H      -46.55120000     -35.49950000     -68.46210000
