40
Properties=species:S:1:pos:R:3 #=T CELL(abcABC):=T 1.889726e+02=T 90.00000=T Traj:=T positionsangstrom=T Step:=T 0=T Bead:=T pbc="F F F"
C      -47.34310000     -31.27840000     -70.74500000
C      -48.01380000     -32.08680000     -71.64760000
C      -48.14230000     -33.47840000     -71.46040000
C      -47.66780000     -34.06590000     -70.26130000
C      -46.92660000     -33.22190000     -69.41470000
C      -46.65060000     -31.92650000     -69.68960000
H      -47.18580000     -30.26990000     -71.05110000
H      -48.65780000     -34.07570000     -72.26370000
H      -46.35520000     -33.68480000     -68.58750000
H      -46.00600000     -31.24490000     -69.00900000
C      -47.89410000     -35.50490000     -69.84960000
H      -48.91070000     -35.74760000     -70.05460000
H      -47.79090000     -35.70930000     -68.77590000
C      -48.60680000     -31.55600000     -72.89760000
H      -49.61430000     -31.94100000     -73.15290000
H      -48.60370000     -30.46610000     -72.96950000
S      -47.06570000     -36.89940000     -70.65770000
S      -47.64560000     -32.17350000     -74.37910000
C      -45.34130000     -36.55990000     -70.19730000
H      -45.38160000     -36.05580000     -69.17010000
H      -44.75770000     -37.46110000     -70.09710000
C      -45.87180000     -31.78610000     -73.81500000
H      -45.92960000     -30.90450000     -73.13750000
H      -45.42360000     -31.42900000     -74.73410000
C      -45.18280000     -32.88970000     -73.16680000
H      -45.93260000     -33.36650000     -72.60110000
H      -44.87320000     -33.59710000     -73.88710000
C      -44.80450000     -35.50370000     -71.18840000
H      -45.73290000     -34.93450000     -71.36950000
H      -44.62660000     -35.98340000     -72.15590000
C      -43.64020000     -34.68730000     -70.80750000
C      -42.65460000     -35.14110000     -69.99380000
C      -43.45600000     -33.30630000     -71.16660000
H      -42.45070000     -36.11560000     -69.55530000
C      -42.26860000     -32.71060000     -70.64450000
C      -44.04210000     -32.49250000     -72.23740000
C      -43.40340000     -31.25680000     -72.38720000
S      -41.54110000     -33.80110000     -69.53280000
S      -42.06820000     -31.09950000     -71.23160000
H      -43.76230000     -30.55280000     -73.12940000
