40
Properties=species:S:1:pos:R:3 #=T CELL(abcABC):=T 1.889726e+02=T 90.00000=T Traj:=T positionsangstrom=T Step:=T 0=T Bead:=T pbc="F F F"
C      -47.33150000     -31.69660000     -71.09040000
C      -48.09740000     -32.56400000     -71.97240000
C      -48.39710000     -33.85430000     -71.46030000
C      -48.01250000     -34.17070000     -70.15580000
C      -47.31750000     -33.28570000     -69.31440000
C      -46.95680000     -31.96850000     -69.81590000
H      -47.17980000     -30.73130000     -71.62220000
H      -48.90150000     -34.64420000     -71.99920000
H      -47.04620000     -33.58690000     -68.28830000
H      -46.29890000     -31.25760000     -69.39050000
C      -48.29190000     -35.54770000     -69.67220000
H      -49.33560000     -35.89860000     -69.84990000
H      -48.03810000     -35.54320000     -68.62150000
C      -48.58340000     -32.00100000     -73.28120000
H      -49.43260000     -32.53790000     -73.64610000
H      -48.85970000     -30.95570000     -73.06890000
S      -47.20370000     -36.82060000     -70.53070000
S      -47.26880000     -32.06940000     -74.65400000
C      -45.50500000     -36.29160000     -70.10730000
H      -45.53840000     -35.65270000     -69.16340000
H      -44.71670000     -37.16650000     -69.94330000
C      -45.64890000     -31.61150000     -73.93560000
H      -45.83040000     -30.72700000     -73.34690000
H      -44.98510000     -31.41740000     -74.80180000
C      -44.94250000     -32.72010000     -73.18140000
H      -45.65460000     -33.27670000     -72.53270000
H      -44.55200000     -33.48520000     -73.92430000
C      -44.90360000     -35.35550000     -71.14870000
H      -45.72370000     -34.77290000     -71.47860000
H      -44.56460000     -35.85630000     -72.07980000
C      -43.82390000     -34.47870000     -70.61760000
C      -43.08600000     -34.81080000     -69.47270000
C      -43.27810000     -33.26310000     -71.26080000
H      -43.32370000     -35.60430000     -68.80860000
C      -42.19730000     -32.75560000     -70.55900000
C      -43.73550000     -32.40150000     -72.34750000
C      -43.01330000     -31.22980000     -72.45410000
S      -41.70730000     -33.67430000     -69.24450000
S      -41.65300000     -31.20060000     -71.26570000
H      -43.09430000     -30.45920000     -73.22260000
