40
Properties=species:S:1:pos:R:3 #=T CELL(abcABC):=T 1.889726e+02=T 90.00000=T Traj:=T positionsangstrom=T Step:=T 0=T Bead:=T pbc="F F F"
C      -46.45440000     -29.95030000     -69.84470000
C      -45.10020000     -30.04260000     -70.27210000
C      -44.80910000     -30.18490000     -71.65710000
C      -45.88520000     -30.11060000     -72.54980000
C      -47.21830000     -29.95320000     -72.12480000
C      -47.50980000     -29.96630000     -70.74140000
H      -46.65910000     -29.78960000     -68.76590000
H      -43.84720000     -30.51770000     -72.02840000
H      -48.04490000     -29.82710000     -72.85060000
H      -48.48410000     -29.88810000     -70.33390000
C      -45.58970000     -30.31700000     -74.01310000
H      -44.47110000     -30.28860000     -74.16570000
H      -45.99500000     -29.55720000     -74.70380000
C      -43.98850000     -30.19650000     -69.28460000
H      -42.98400000     -30.33050000     -69.69520000
H      -43.92540000     -29.30740000     -68.67140000
S      -46.38100000     -31.90780000     -74.69590000
S      -44.25080000     -31.48590000     -68.00620000
C      -46.28510000     -33.13950000     -73.42020000
H      -46.67560000     -32.72110000     -72.46020000
H      -46.99890000     -33.99590000     -73.68440000
C      -43.95780000     -33.04390000     -69.05190000
H      -43.62480000     -33.91500000     -68.48260000
H      -43.16820000     -32.81240000     -69.73450000
C      -45.20920000     -33.43470000     -69.86310000
H      -46.19290000     -33.18730000     -69.38680000
H      -45.24710000     -32.94760000     -70.81590000
C      -44.87940000     -33.77450000     -73.21640000
H      -44.37860000     -33.02140000     -72.61290000
H      -44.36980000     -33.76760000     -74.16690000
C      -44.85290000     -35.15440000     -72.69770000
C      -44.72170000     -36.26960000     -73.50350000
C      -45.03550000     -35.60060000     -71.33180000
H      -44.78930000     -36.12840000     -74.56440000
C      -45.10620000     -36.98020000     -71.20260000
C      -45.17460000     -34.95200000     -70.01560000
C      -45.22490000     -35.84680000     -69.04410000
S      -44.82330000     -37.82050000     -72.68740000
S      -45.23680000     -37.52060000     -69.58130000
H      -45.18140000     -35.61030000     -68.02080000
