40
Properties=species:S:1:pos:R:3 #=T CELL(abcABC):=T 1.889726e+02=T 90.00000=T Traj:=T positionsangstrom=T Step:=T 0=T Bead:=T pbc="F F F"
C      -44.75880000     -29.88380000     -72.14950000
C      -45.12160000     -30.60530000     -73.25240000
C      -44.28930000     -31.55060000     -73.81900000
C      -42.97630000     -31.78320000     -73.35670000
C      -42.56210000     -30.92830000     -72.32740000
C      -43.44180000     -30.03410000     -71.62170000
H      -45.39230000     -29.09440000     -71.77250000
H      -44.91950000     -32.13950000     -74.50890000
H      -41.52480000     -31.15320000     -72.05090000
H      -43.04090000     -29.43000000     -70.83640000
C      -42.06830000     -32.86340000     -73.92020000
H      -41.08920000     -32.79390000     -73.32820000
H      -41.84020000     -32.62640000     -74.99390000
C      -46.57900000     -30.52310000     -73.78930000
H      -47.09890000     -29.68880000     -73.24500000
H      -46.40700000     -30.28990000     -74.91220000
S      -42.98460000     -34.54320000     -73.86760000
S      -47.53470000     -32.07510000     -73.67400000
C      -43.57430000     -34.42640000     -72.13550000
H      -42.71900000     -34.39920000     -71.47070000
H      -44.01720000     -33.41930000     -72.05630000
C      -47.36500000     -32.55170000     -71.93170000
H      -47.84160000     -31.97630000     -71.15510000
H      -46.34500000     -32.50410000     -71.63380000
C      -47.89640000     -33.99090000     -71.59440000
H      -49.05380000     -33.96080000     -71.65270000
H      -47.49370000     -34.79410000     -72.25940000
C      -44.67940000     -35.38730000     -71.80970000
H      -44.45510000     -36.45340000     -72.00540000
H      -45.44430000     -35.08620000     -72.49720000
C      -44.93090000     -35.27330000     -70.33400000
C      -44.02900000     -35.65000000     -69.37640000
C      -46.12780000     -34.76820000     -69.66980000
H      -42.93260000     -35.91450000     -69.52270000
C      -46.08200000     -34.96130000     -68.27070000
C      -47.45470000     -34.23540000     -70.11960000
C      -48.29740000     -34.05390000     -69.05770000
S      -44.57070000     -35.62220000     -67.76800000
S      -47.51990000     -34.42010000     -67.46390000
H      -49.23170000     -33.62020000     -69.13090000
