40
Properties=species:S:1:pos:R:3 #=T CELL(abcABC):=T 1.889726e+02=T 90.00000=T Traj:=T positionsangstrom=T Step:=T 0=T Bead:=T pbc="F F F"
C      -47.48610000     -31.58070000     -71.14490000
C      -48.08630000     -32.49630000     -72.00850000
C      -48.33640000     -33.82030000     -71.52090000
C      -48.09680000     -34.13790000     -70.18370000
C      -47.42150000     -33.26880000     -69.36350000
C      -47.05700000     -32.01520000     -69.83960000
H      -47.12640000     -30.58540000     -71.44170000
H      -48.66540000     -34.55430000     -72.26790000
H      -47.18520000     -33.69190000     -68.34690000
H      -46.55160000     -31.29680000     -69.22940000
C      -48.37280000     -35.55810000     -69.75410000
H      -49.36490000     -35.89390000     -69.98930000
H      -48.39490000     -35.60520000     -68.66380000
C      -48.44230000     -32.24460000     -73.47310000
H      -48.90890000     -33.13940000     -73.86450000
H      -49.18190000     -31.42740000     -73.66890000
S      -47.24570000     -36.93910000     -70.34380000
S      -47.15590000     -32.05680000     -74.78040000
C      -45.56650000     -36.15130000     -69.92030000
H      -45.71650000     -35.70300000     -69.01570000
H      -44.91300000     -36.98630000     -69.86220000
C      -45.53940000     -31.45790000     -73.97890000
H      -45.83330000     -30.76620000     -73.20030000
H      -44.94180000     -30.88270000     -74.68230000
C      -44.84720000     -32.72220000     -73.29510000
H      -45.63270000     -33.38220000     -72.86260000
H      -44.50460000     -33.27980000     -74.10060000
C      -45.02710000     -35.19710000     -70.96060000
H      -45.74050000     -34.43510000     -71.27050000
H      -44.78310000     -35.72990000     -71.91640000
C      -43.87790000     -34.38230000     -70.55900000
C      -43.09820000     -34.76680000     -69.49470000
C      -43.33260000     -33.20060000     -71.17990000
H      -43.25230000     -35.64850000     -68.94670000
C      -42.27350000     -32.68930000     -70.48830000
C      -43.72850000     -32.39280000     -72.31720000
C      -42.81240000     -31.39160000     -72.51070000
S      -41.79200000     -33.65320000     -69.16630000
S      -41.51730000     -31.31330000     -71.32560000
H      -42.91980000     -30.63950000     -73.23210000
