40
Properties=species:S:1:pos:R:3 #=T CELL(abcABC):=T 1.889726e+02=T 90.00000=T Traj:=T positionsangstrom=T Step:=T 0=T Bead:=T pbc="F F F"
C      -47.64010000     -31.60660000     -71.34290000
C      -48.04850000     -32.60070000     -72.24760000
C      -48.29400000     -33.89580000     -71.76940000
C      -48.06340000     -34.22780000     -70.39310000
C      -47.59300000     -33.28780000     -69.53910000
C      -47.28070000     -32.00860000     -70.00730000
H      -47.54850000     -30.58430000     -71.64240000
H      -48.72690000     -34.62590000     -72.43760000
H      -47.38360000     -33.54480000     -68.53500000
H      -46.86780000     -31.25780000     -69.26700000
C      -48.49120000     -35.52140000     -69.78740000
H      -49.42010000     -35.82640000     -70.30070000
H      -48.62990000     -35.45920000     -68.67350000
C      -48.48080000     -32.15540000     -73.62610000
H      -49.19780000     -32.82550000     -74.14150000
H      -49.02920000     -31.22450000     -73.47540000
S      -47.29490000     -36.90420000     -70.15700000
S      -46.99190000     -31.98220000     -74.73720000
C      -45.66880000     -36.09120000     -69.74690000
H      -45.77090000     -35.62210000     -68.69320000
H      -44.96660000     -36.91020000     -69.46050000
C      -45.58250000     -31.51420000     -73.69670000
H      -45.99540000     -31.00780000     -72.80810000
H      -45.02800000     -30.72690000     -74.22060000
C      -44.75210000     -32.82960000     -73.39500000
H      -45.41550000     -33.62570000     -73.00330000
H      -44.21450000     -33.09600000     -74.33190000
C      -45.00630000     -35.23860000     -70.87990000
H      -45.76320000     -34.62990000     -71.33560000
H      -44.79260000     -36.00320000     -71.63360000
C      -43.82880000     -34.40180000     -70.45620000
C      -43.16140000     -34.62590000     -69.29110000
C      -43.23510000     -33.30180000     -71.16020000
H      -43.33100000     -35.45720000     -68.60010000
C      -42.13360000     -32.71950000     -70.55440000
C      -43.59550000     -32.50750000     -72.34010000
C      -42.73380000     -31.45170000     -72.56550000
S      -41.77200000     -33.57430000     -69.09120000
S      -41.54150000     -31.32680000     -71.35160000
H      -42.82760000     -30.67770000     -73.27520000
