40
Properties=species:S:1:pos:R:3 #=T CELL(abcABC):=T 1.889726e+02=T 90.00000=T Traj:=T positionsangstrom=T Step:=T 0=T Bead:=T pbc="F F F"
C      -44.74580000     -29.57460000     -72.88040000
C      -45.28050000     -30.53960000     -73.73680000
C      -44.36850000     -31.54800000     -74.19250000
C      -43.03020000     -31.66060000     -73.80350000
C      -42.56320000     -30.67110000     -72.90980000
C      -43.39370000     -29.66330000     -72.46890000
H      -45.31730000     -28.77670000     -72.40460000
H      -44.88970000     -32.32230000     -74.79820000
H      -41.55790000     -30.68550000     -72.55590000
H      -42.97720000     -28.83530000     -71.77700000
C      -42.24000000     -32.90340000     -74.25140000
H      -41.20660000     -32.80890000     -74.06120000
H      -42.30330000     -33.03720000     -75.33780000
C      -46.70620000     -30.49070000     -74.25310000
H      -47.00900000     -29.49180000     -74.06630000
H      -46.80120000     -30.83850000     -75.29280000
S      -42.87090000     -34.56430000     -73.61000000
S      -47.69050000     -31.59820000     -73.07360000
C      -43.48810000     -34.28740000     -71.95700000
H      -42.63650000     -34.30840000     -71.32670000
H      -43.82610000     -33.15200000     -71.85080000
C      -46.64300000     -32.47720000     -71.87960000
H      -46.37440000     -31.87700000     -70.98730000
H      -45.74660000     -32.89290000     -72.35030000
C      -47.59930000     -33.63080000     -71.30110000
H      -48.57900000     -33.19980000     -71.39660000
H      -47.62130000     -34.49930000     -71.96360000
C      -44.56740000     -35.40970000     -71.64210000
H      -44.20970000     -36.36640000     -71.99190000
H      -45.49300000     -35.10640000     -72.12360000
C      -44.91790000     -35.52220000     -70.16050000
C      -44.28850000     -36.33300000     -69.27900000
C      -46.17200000     -34.94070000     -69.54720000
H      -43.40760000     -36.91190000     -69.50230000
C      -46.20100000     -35.26040000     -68.16620000
C      -47.26080000     -34.14050000     -69.91330000
C      -48.10700000     -33.86650000     -68.88020000
S      -44.87640000     -36.26810000     -67.60600000
S      -47.47870000     -34.46540000     -67.36370000
H      -49.01160000     -33.30500000     -68.86160000
