40
Properties=species:S:1:pos:R:3 #=T CELL(abcABC):=T 1.889726e+02=T 90.00000=T Traj:=T positionsangstrom=T Step:=T 0=T Bead:=T pbc="F F F"
C      -44.56940000     -29.53280000     -73.01710000
C      -45.17870000     -30.58200000     -73.74070000
C      -44.33340000     -31.62080000     -73.98350000
C      -42.94800000     -31.73360000     -73.66850000
C      -42.42550000     -30.67270000     -72.88070000
C      -43.23710000     -29.57280000     -72.67810000
H      -45.24650000     -28.71940000     -72.70400000
H      -44.78520000     -32.41710000     -74.56920000
H      -41.38690000     -30.53630000     -72.53820000
H      -42.91150000     -28.68500000     -72.11420000
C      -42.10440000     -32.94820000     -73.89620000
H      -41.31320000     -32.84130000     -73.15910000
H      -41.67500000     -32.87620000     -74.95440000
C      -46.63450000     -30.54560000     -74.21420000
H      -47.11060000     -29.58810000     -74.06270000
H      -46.78330000     -30.68120000     -75.29010000
S      -43.02600000     -34.49840000     -73.58040000
S      -47.88530000     -31.59000000     -73.28510000
C      -43.46190000     -34.43170000     -71.82420000
H      -42.65920000     -34.71350000     -71.17440000
H      -43.82770000     -33.47590000     -71.54010000
C      -46.88560000     -32.32120000     -71.81780000
H      -46.74070000     -31.48530000     -71.05490000
H      -45.99380000     -32.53360000     -72.25580000
C      -47.64840000     -33.50780000     -71.24800000
H      -48.75660000     -33.30910000     -71.22080000
H      -47.60530000     -34.42550000     -71.95500000
C      -44.60080000     -35.45490000     -71.65630000
H      -44.35260000     -36.42750000     -72.14030000
H      -45.45550000     -35.15380000     -72.27920000
C      -44.95520000     -35.52290000     -70.21950000
C      -44.22100000     -36.26760000     -69.35770000
C      -46.08400000     -34.88240000     -69.53220000
H      -43.45570000     -37.01160000     -69.70420000
C      -46.15870000     -35.25940000     -68.15150000
C      -47.15840000     -33.94890000     -69.87860000
C      -47.97220000     -33.67370000     -68.81490000
S      -44.87310000     -36.38480000     -67.71510000
S      -47.51230000     -34.60890000     -67.35380000
H      -48.68030000     -32.86590000     -68.65430000
