40
Properties=species:S:1:pos:R:3 #=T CELL(abcABC):=T 1.889726e+02=T 90.00000=T Traj:=T positionsangstrom=T Step:=T 0=T Bead:=T pbc="F F F"
C      -42.79360000     -30.91780000     -68.70090000
C      -43.70030000     -30.65940000     -69.71820000
C      -43.37300000     -31.11630000     -71.02150000
C      -42.11240000     -31.63510000     -71.35490000
C      -41.15270000     -31.73450000     -70.33470000
C      -41.53330000     -31.36270000     -69.02530000
H      -43.08280000     -30.61830000     -67.67280000
H      -44.07490000     -31.07710000     -71.81850000
H      -40.12240000     -31.98510000     -70.50190000
H      -40.85910000     -31.41960000     -68.15650000
C      -41.69840000     -32.04190000     -72.83090000
H      -41.53330000     -33.15890000     -72.80500000
H      -40.78630000     -31.44210000     -73.16940000
C      -45.05220000     -29.95280000     -69.46110000
H      -44.82920000     -29.10690000     -68.77780000
H      -45.45720000     -29.56800000     -70.37640000
S      -43.09450000     -31.95460000     -74.03460000
S      -46.23330000     -31.09950000     -68.54630000
C      -43.93800000     -33.61520000     -73.90880000
H      -44.40660000     -33.76330000     -74.84210000
H      -43.21710000     -34.33050000     -73.76970000
C      -46.24320000     -32.70440000     -69.40420000
H      -46.44330000     -33.48950000     -68.70700000
H      -45.32220000     -32.97730000     -69.84360000
C      -47.28570000     -32.70740000     -70.53350000
H      -48.26750000     -32.18750000     -70.20260000
H      -46.90480000     -32.05920000     -71.30650000
C      -44.98400000     -33.69250000     -72.79990000
H      -45.76680000     -32.94110000     -72.98830000
H      -44.48560000     -33.48230000     -71.83970000
C      -45.69340000     -35.00680000     -72.56250000
C      -45.47080000     -36.21500000     -73.20260000
C      -46.94640000     -35.04520000     -71.77460000
H      -44.71240000     -36.30640000     -74.04050000
C      -47.58740000     -36.29060000     -71.84890000
C      -47.76500000     -34.12930000     -71.00330000
C      -49.02800000     -34.58520000     -70.62490000
S      -46.64130000     -37.50970000     -72.76390000
S      -49.18210000     -36.28970000     -71.15620000
H      -49.75140000     -33.99020000     -70.02040000
