40
Properties=species:S:1:pos:R:3 #=T CELL(abcABC):=T 1.889726e+02=T 90.00000=T Traj:=T positionsangstrom=T Step:=T 0=T Bead:=T pbc="F F F"
C      -42.68690000     -31.07460000     -68.80250000
C      -43.62780000     -30.70990000     -69.78320000
C      -43.30370000     -31.03740000     -71.11670000
C      -42.13550000     -31.63590000     -71.52980000
C      -41.15630000     -31.85670000     -70.54280000
C      -41.45250000     -31.67130000     -69.19190000
H      -42.99510000     -31.04150000     -67.76570000
H      -44.07910000     -30.89680000     -71.87910000
H      -40.16570000     -32.08950000     -70.92890000
H      -40.63990000     -31.86330000     -68.45230000
C      -41.74370000     -32.10410000     -72.97840000
H      -41.11000000     -33.01450000     -72.95410000
H      -40.93330000     -31.32300000     -73.27290000
C      -45.04160000     -30.15800000     -69.52280000
H      -44.93290000     -29.21050000     -69.04290000
H      -45.57670000     -30.02250000     -70.48630000
S      -43.04550000     -32.11260000     -74.21240000
S      -46.03400000     -31.25540000     -68.35700000
C      -43.83520000     -33.65710000     -73.73760000
H      -44.17570000     -34.13350000     -74.58820000
H      -43.09560000     -34.31890000     -73.29370000
C      -46.29250000     -32.77300000     -69.41620000
H      -46.43080000     -33.59560000     -68.75260000
H      -45.33260000     -32.98240000     -69.89260000
C      -47.48980000     -32.65870000     -70.43330000
H      -48.29330000     -32.13130000     -69.92550000
H      -47.30800000     -31.99520000     -71.30380000
C      -45.00170000     -33.52080000     -72.68830000
H      -45.69090000     -32.68980000     -72.92590000
H      -44.50860000     -33.31540000     -71.66320000
C      -45.87100000     -34.68940000     -72.53200000
C      -45.54290000     -35.86100000     -73.16430000
C      -47.12010000     -34.89690000     -71.75410000
H      -44.62620000     -36.18710000     -73.50940000
C      -47.67530000     -36.15410000     -71.87000000
C      -47.89420000     -34.04460000     -70.86400000
C      -48.94570000     -34.66110000     -70.27790000
S      -46.78330000     -37.18350000     -72.97060000
S      -49.12960000     -36.35670000     -70.94140000
H      -49.71230000     -34.29820000     -69.68930000
