40
Properties=species:S:1:pos:R:3 #=T CELL(abcABC):=T 1.889726e+02=T 90.00000=T Traj:=T positionsangstrom=T Step:=T 0=T Bead:=T pbc="F F F"
C      -42.71610000     -30.85460000     -68.79420000
C      -43.67570000     -30.64130000     -69.80890000
C      -43.33090000     -31.12980000     -71.08040000
C      -42.12300000     -31.77680000     -71.44190000
C      -41.21250000     -31.94950000     -70.40350000
C      -41.49220000     -31.49570000     -69.12060000
H      -42.84190000     -30.45860000     -67.76800000
H      -44.01200000     -30.87090000     -71.90490000
H      -40.25900000     -32.51810000     -70.65560000
H      -40.73780000     -31.71710000     -68.37520000
C      -41.66580000     -31.98890000     -72.86560000
H      -40.91860000     -32.73180000     -73.10730000
H      -41.25260000     -31.06980000     -73.24030000
C      -45.00960000     -30.03000000     -69.48810000
H      -44.99990000     -29.10810000     -68.90940000
H      -45.53300000     -29.79080000     -70.42610000
S      -43.10950000     -32.07690000     -74.09300000
S      -46.10750000     -31.16230000     -68.41200000
C      -43.96610000     -33.71840000     -73.75430000
H      -44.47420000     -33.88820000     -74.74240000
H      -43.21920000     -34.56440000     -73.61180000
C      -46.39080000     -32.73430000     -69.40500000
H      -46.60120000     -33.46750000     -68.61320000
H      -45.41580000     -32.99090000     -69.89950000
C      -47.45820000     -32.63960000     -70.48310000
H      -48.31310000     -32.15670000     -70.13770000
H      -46.97290000     -32.01830000     -71.29680000
C      -44.94490000     -33.61630000     -72.61820000
H      -45.55440000     -32.73370000     -72.72090000
H      -44.48800000     -33.40610000     -71.68030000
C      -45.80630000     -34.80730000     -72.59270000
C      -45.52170000     -36.01200000     -73.17810000
C      -47.04280000     -34.89490000     -71.82880000
H      -44.72520000     -36.17320000     -73.86920000
C      -47.59860000     -36.16340000     -71.90270000
C      -47.87260000     -34.05740000     -70.99080000
C      -48.99060000     -34.73070000     -70.50560000
S      -46.68010000     -37.31540000     -72.91040000
S      -49.08080000     -36.35870000     -71.02850000
H      -49.72450000     -34.37790000     -69.88790000
