40
Properties=species:S:1:pos:R:3 #=T CELL(abcABC):=T 1.889726e+02=T 90.00000=T Traj:=T positionsangstrom=T Step:=T 0=T Bead:=T pbc="F F F"
C      -42.63180000     -31.59930000     -68.97730000
C      -43.54680000     -31.04320000     -69.82050000
C      -43.37350000     -31.09820000     -71.22010000
C      -42.24420000     -31.72750000     -71.78020000
C      -41.33890000     -32.27670000     -70.89050000
C      -41.52950000     -32.24400000     -69.50180000
H      -42.84370000     -31.62080000     -67.92900000
H      -44.03090000     -30.54180000     -71.91980000
H      -40.39220000     -32.70730000     -71.28790000
H      -40.87070000     -32.70760000     -68.78210000
C      -41.88160000     -31.85630000     -73.30080000
H      -41.20850000     -32.68440000     -73.49040000
H      -41.49650000     -30.87940000     -73.56560000
C      -44.66760000     -30.22530000     -69.28750000
H      -44.25040000     -29.45770000     -68.63240000
H      -45.39780000     -29.75230000     -70.00880000
S      -43.37160000     -32.11130000     -74.33000000
S      -45.68300000     -31.30470000     -68.12850000
C      -44.08720000     -33.72870000     -73.90080000
H      -44.65300000     -33.95470000     -74.83990000
H      -43.27220000     -34.52870000     -73.87620000
C      -46.01780000     -32.85810000     -69.02050000
H      -46.51480000     -33.55150000     -68.27100000
H      -45.01420000     -33.29170000     -69.38250000
C      -46.86420000     -32.64650000     -70.19700000
H      -47.73300000     -32.00830000     -70.01800000
H      -46.18810000     -32.12580000     -70.92540000
C      -44.92060000     -33.67660000     -72.63430000
H      -45.48680000     -32.70680000     -72.68230000
H      -44.29310000     -33.61340000     -71.65120000
C      -45.87600000     -34.79580000     -72.53580000
C      -45.83670000     -35.88240000     -73.41470000
C      -47.02510000     -34.77970000     -71.68240000
H      -44.99500000     -36.12230000     -74.08380000
C      -47.85240000     -35.86870000     -71.89920000
C      -47.50710000     -33.91640000     -70.63070000
C      -48.62530000     -34.47880000     -70.00930000
S      -47.18700000     -36.92330000     -73.12040000
S      -49.17760000     -35.95680000     -70.71110000
H      -49.18840000     -34.00830000     -69.13760000
