40
Properties=species:S:1:pos:R:3 #=T CELL(abcABC):=T 1.889726e+02=T 90.00000=T Traj:=T positionsangstrom=T Step:=T 0=T Bead:=T pbc="F F F"
C      -42.84610000     -30.81790000     -68.62790000
C      -43.80180000     -30.62060000     -69.67090000
C      -43.40600000     -31.05140000     -70.98110000
C      -42.17330000     -31.63310000     -71.31200000
C      -41.24040000     -31.76730000     -70.28060000
C      -41.59680000     -31.35550000     -68.97200000
H      -43.00710000     -30.74450000     -67.59460000
H      -44.27310000     -31.03160000     -71.64960000
H      -40.29530000     -32.19920000     -70.50890000
H      -40.88730000     -31.55580000     -68.20110000
C      -41.75050000     -32.13590000     -72.71550000
H      -41.29620000     -33.05790000     -72.58740000
H      -40.81730000     -31.65510000     -73.05200000
C      -45.17230000     -30.05080000     -69.54080000
H      -45.18120000     -29.11840000     -68.99080000
H      -45.69130000     -29.78190000     -70.50560000
S      -43.05800000     -32.07160000     -74.00950000
S      -46.34570000     -31.07320000     -68.52270000
C      -43.87460000     -33.74210000     -73.88430000
H      -44.38640000     -34.01400000     -74.81860000
H      -43.03750000     -34.53330000     -73.79070000
C      -46.34430000     -32.66910000     -69.52450000
H      -46.68910000     -33.46850000     -68.83080000
H      -45.28770000     -32.85230000     -69.85500000
C      -47.32650000     -32.56170000     -70.78040000
H      -48.19490000     -32.01180000     -70.43660000
H      -46.92940000     -31.99330000     -71.59770000
C      -44.88010000     -33.80180000     -72.74540000
H      -45.57390000     -32.95320000     -72.92380000
H      -44.31970000     -33.54010000     -71.78540000
C      -45.67880000     -35.01780000     -72.53190000
C      -45.33250000     -36.23540000     -73.06640000
C      -46.92430000     -35.02360000     -71.81210000
H      -44.35940000     -36.35090000     -73.47310000
C      -47.58770000     -36.25550000     -72.01020000
C      -47.76570000     -34.03170000     -71.12320000
C      -48.92580000     -34.60640000     -70.66110000
S      -46.53480000     -37.45000000     -72.80160000
S      -49.11570000     -36.24120000     -71.12420000
H      -49.67020000     -34.00440000     -70.05840000
