40
Properties=species:S:1:pos:R:3 #=T CELL(abcABC):=T 1.889726e+02=T 90.00000=T Traj:=T positionsangstrom=T Step:=T 0=T Bead:=T pbc="F F F"
C      -41.92220000     -34.01830000     -73.77400000
C      -43.28250000     -33.77940000     -74.07530000
C      -43.89570000     -32.50740000     -73.86090000
C      -43.13710000     -31.45340000     -73.29190000
C      -41.82610000     -31.79640000     -72.83730000
C      -41.20990000     -33.00600000     -73.10760000
H      -41.37290000     -34.93210000     -74.01530000
H      -44.89060000     -32.38290000     -74.19300000
H      -41.14370000     -31.09110000     -72.36000000
H      -40.16850000     -33.16680000     -73.14000000
C      -43.66530000     -30.05510000     -73.10020000
H      -44.60940000     -29.90070000     -73.71560000
H      -42.91880000     -29.26530000     -73.35800000
C      -44.02990000     -34.90070000     -74.80390000
H      -44.96570000     -34.53600000     -75.30440000
H      -43.32820000     -35.23060000     -75.59980000
S      -43.93700000     -29.64920000     -71.26290000
S      -44.44790000     -36.30380000     -73.69430000
C      -45.46210000     -30.51000000     -70.93580000
H      -45.89560000     -30.00070000     -70.11900000
H      -46.18410000     -30.17740000     -71.72990000
C      -45.56300000     -35.64600000     -72.37740000
H      -46.46630000     -36.27800000     -72.25370000
H      -46.02300000     -34.61680000     -72.78890000
C      -44.98640000     -35.25990000     -70.98380000
H      -44.29970000     -35.99270000     -70.57010000
H      -44.36910000     -34.35140000     -71.02380000
C      -45.47840000     -31.99880000     -70.87940000
H      -44.51200000     -32.41280000     -70.42070000
H      -45.58710000     -32.42230000     -71.87180000
C      -46.69850000     -32.56170000     -70.00180000
C      -47.82160000     -31.85710000     -69.61340000
C      -46.68530000     -33.91600000     -69.49110000
H      -48.06410000     -30.81620000     -69.77970000
C      -47.80830000     -34.12730000     -68.68380000
C      -46.02810000     -35.12990000     -69.88980000
C      -46.51680000     -36.23360000     -69.15900000
S      -48.81250000     -32.73020000     -68.53320000
S      -48.04430000     -35.82470000     -68.32280000
H      -46.40050000     -37.25740000     -69.56500000
