40
Properties=species:S:1:pos:R:3 #=T CELL(abcABC):=T 1.889726e+02=T 90.00000=T Traj:=T positionsangstrom=T Step:=T 0=T Bead:=T pbc="F F F"
C      -41.95020000     -33.94030000     -72.81860000
C      -43.01150000     -33.75490000     -73.71380000
C      -43.66890000     -32.55270000     -73.74770000
C      -43.18680000     -31.40880000     -73.06470000
C      -42.09840000     -31.56430000     -72.16900000
C      -41.58160000     -32.86270000     -72.00580000
H      -41.42390000     -34.91580000     -72.77960000
H      -44.42210000     -32.31220000     -74.47270000
H      -41.74160000     -30.72820000     -71.55790000
H      -40.69580000     -32.94360000     -71.40750000
C      -43.86360000     -30.09190000     -73.28770000
H      -44.67090000     -30.21000000     -73.99660000
H      -43.22040000     -29.32980000     -73.65100000
C      -43.52030000     -34.87450000     -74.74430000
H      -44.19550000     -34.41020000     -75.45670000
H      -42.75700000     -35.31320000     -75.33580000
S      -44.46250000     -29.44150000     -71.65000000
S      -44.35600000     -36.32470000     -73.89840000
C      -45.85220000     -30.49600000     -71.29610000
H      -46.46640000     -30.09790000     -70.47370000
H      -46.49070000     -30.54150000     -72.22550000
C      -45.43260000     -35.61820000     -72.66340000
H      -46.10070000     -36.50040000     -72.39490000
H      -46.04800000     -34.75160000     -73.09240000
C      -44.85920000     -35.23430000     -71.31400000
H      -44.19650000     -36.06680000     -70.98090000
H      -44.32700000     -34.29030000     -71.45830000
C      -45.61060000     -31.96100000     -70.86080000
H      -44.57750000     -32.17100000     -70.45160000
H      -45.65700000     -32.61820000     -71.74550000
C      -46.64630000     -32.55630000     -69.94070000
C      -47.44410000     -31.85130000     -69.10950000
C      -46.75960000     -33.99480000     -69.81540000
H      -47.61100000     -30.77070000     -69.11310000
C      -47.76280000     -34.27960000     -68.86660000
C      -46.07850000     -35.13620000     -70.31560000
C      -46.59360000     -36.29540000     -69.81370000
S      -48.59650000     -32.83840000     -68.17680000
S      -47.87490000     -35.99490000     -68.62070000
H      -46.21280000     -37.33450000     -69.98070000
