40
Properties=species:S:1:pos:R:3 #=T CELL(abcABC):=T 1.889726e+02=T 90.00000=T Traj:=T positionsangstrom=T Step:=T 0=T Bead:=T pbc="F F F"
C      -46.02010000     -29.93130000     -73.16170000
C      -46.71610000     -31.09580000     -73.58990000
C      -47.66030000     -31.65300000     -72.62970000
C      -48.03540000     -31.03060000     -71.45070000
C      -47.44750000     -29.78340000     -71.16430000
C      -46.40810000     -29.30430000     -71.98000000
H      -45.21700000     -29.51360000     -73.80660000
H      -48.14440000     -32.60340000     -72.85690000
H      -47.71400000     -29.30750000     -70.23000000
H      -45.93930000     -28.39190000     -71.62150000
C      -48.94820000     -31.68650000     -70.45540000
H      -49.89090000     -31.54930000     -70.80210000
H      -48.92040000     -31.11880000     -69.42510000
C      -46.47000000     -31.78480000     -74.94690000
H      -47.24360000     -31.59060000     -75.71180000
H      -45.52790000     -31.31170000     -75.42520000
S      -48.56860000     -33.38430000     -70.07310000
S      -46.20220000     -33.56150000     -74.93950000
C      -46.91580000     -33.31120000     -69.44000000
H      -46.37220000     -32.49150000     -70.00660000
H      -47.05810000     -32.89060000     -68.40960000
C      -44.58520000     -33.77680000     -73.97670000
H      -43.93490000     -32.89570000     -73.93900000
H      -43.94510000     -34.47370000     -74.49760000
C      -44.89190000     -34.28350000     -72.53880000
H      -45.55120000     -33.55540000     -72.05260000
H      -45.50970000     -35.18130000     -72.68920000
C      -46.27430000     -34.72720000     -69.59690000
H      -46.32760000     -35.04880000     -70.66350000
H      -46.75020000     -35.52580000     -68.99030000
C      -44.78020000     -34.82040000     -69.30180000
C      -44.25840000     -35.10810000     -68.01940000
C      -43.71020000     -34.77940000     -70.25060000
H      -44.84090000     -35.10060000     -67.06870000
C      -42.43160000     -34.95300000     -69.71550000
C      -43.63610000     -34.64320000     -71.68720000
C      -42.39590000     -34.83100000     -72.16590000
S      -42.48050000     -35.22780000     -67.98350000
S      -41.22300000     -35.29100000     -70.94190000
H      -42.09430000     -34.65260000     -73.15030000
