40
Properties=species:S:1:pos:R:3 #=T CELL(abcABC):=T 1.889726e+02=T 90.00000=T Traj:=T positionsangstrom=T Step:=T 0=T Bead:=T pbc="F F F"
C      -45.52310000     -30.67600000     -73.15180000
C      -46.64770000     -31.22700000     -73.73760000
C      -47.73030000     -31.66690000     -72.91810000
C      -47.74470000     -31.46870000     -71.51240000
C      -46.58260000     -30.90750000     -70.95860000
C      -45.51170000     -30.52430000     -71.74280000
H      -44.58170000     -30.51110000     -73.68830000
H      -48.58170000     -32.04570000     -73.37100000
H      -46.40990000     -30.87460000     -69.89980000
H      -44.64140000     -30.13210000     -71.23040000
C      -48.81130000     -32.09170000     -70.63100000
H      -49.82590000     -32.08010000     -70.95130000
H      -48.63430000     -31.60710000     -69.61390000
C      -46.63260000     -31.68070000     -75.15090000
H      -47.61810000     -31.59970000     -75.50120000
H      -45.79600000     -31.26340000     -75.74250000
S      -48.50830000     -33.92140000     -70.46800000
S      -46.25920000     -33.55820000     -75.06760000
C      -47.10770000     -33.95860000     -69.40070000
H      -46.29390000     -33.29090000     -69.68990000
H      -47.21770000     -33.74400000     -68.37370000
C      -44.71310000     -33.77340000     -73.99220000
H      -44.18490000     -32.87350000     -73.96930000
H      -44.25400000     -34.60020000     -74.49340000
C      -45.01240000     -34.09270000     -72.50970000
H      -45.95760000     -33.54110000     -72.24680000
H      -45.29710000     -35.11820000     -72.49280000
C      -46.40020000     -35.29910000     -69.53660000
H      -46.61330000     -35.80620000     -70.53800000
H      -46.66010000     -35.91910000     -68.74690000
C      -44.91720000     -35.09560000     -69.32520000
C      -44.28060000     -35.54110000     -68.17140000
C      -43.93150000     -34.48390000     -70.16740000
H      -44.80850000     -36.00750000     -67.36560000
C      -42.65500000     -34.45130000     -69.58970000
C      -43.89180000     -33.82200000     -71.51440000
C      -42.64970000     -33.37540000     -71.81770000
S      -42.59920000     -35.11940000     -67.93200000
S      -41.46440000     -33.66380000     -70.58050000
H      -42.29170000     -33.05850000     -72.82730000
