40
Properties=species:S:1:pos:R:3 #=T CELL(abcABC):=T 1.889726e+02=T 90.00000=T Traj:=T positionsangstrom=T Step:=T 0=T Bead:=T pbc="F F F"
C      -46.57460000     -29.42930000     -73.59110000
C      -46.72480000     -30.86930000     -73.55520000
C      -47.42610000     -31.49890000     -72.55160000
C      -47.98360000     -30.67550000     -71.50160000
C      -47.79980000     -29.28680000     -71.49580000
C      -47.15340000     -28.65550000     -72.55850000
H      -46.06680000     -28.86050000     -74.40500000
H      -47.49400000     -32.62230000     -72.40480000
H      -48.32700000     -28.74920000     -70.69860000
H      -47.13770000     -27.52130000     -72.55310000
C      -48.52690000     -31.32810000     -70.23730000
H      -49.65240000     -31.24480000     -70.31730000
H      -48.23420000     -30.71650000     -69.36560000
C      -46.16790000     -31.68390000     -74.74260000
H      -46.74670000     -31.51260000     -75.63710000
H      -45.05790000     -31.55320000     -74.88540000
S      -48.24360000     -33.14260000     -70.09850000
S      -46.27610000     -33.57260000     -74.76860000
C      -46.50210000     -33.34540000     -69.64170000
H      -45.79580000     -32.78490000     -70.27970000
H      -46.38300000     -32.83110000     -68.64180000
C      -44.60220000     -34.02030000     -73.96600000
H      -43.89500000     -33.23620000     -74.10860000
H      -44.27760000     -34.88140000     -74.45040000
C      -44.78140000     -34.23270000     -72.46060000
H      -45.05130000     -33.24130000     -72.03300000
H      -45.68130000     -34.87330000     -72.31530000
C      -46.33830000     -34.84090000     -69.62700000
H      -46.69910000     -35.32920000     -70.52800000
H      -46.83410000     -35.22140000     -68.74010000
C      -44.81730000     -35.24780000     -69.37860000
C      -44.43090000     -35.58730000     -68.08760000
C      -43.72220000     -35.07240000     -70.25680000
H      -45.16400000     -35.69490000     -67.26800000
C      -42.50930000     -35.34850000     -69.65330000
C      -43.58760000     -34.71940000     -71.68870000
C      -42.27060000     -34.74800000     -72.04220000
S      -42.70010000     -35.93760000     -67.97120000
S      -41.15120000     -35.21670000     -70.73000000
H      -41.79430000     -34.33280000     -72.97960000
