40
Properties=species:S:1:pos:R:3 #=T CELL(abcABC):=T 1.889726e+02=T 90.00000=T Traj:=T positionsangstrom=T Step:=T 0=T Bead:=T pbc="F F F"
C      -46.33540000     -29.68400000     -73.37810000
C      -46.73840000     -30.96640000     -73.68660000
C      -47.61600000     -31.62980000     -72.87460000
C      -48.07320000     -30.98540000     -71.69180000
C      -47.71970000     -29.62620000     -71.39230000
C      -46.94040000     -28.97830000     -72.32330000
H      -45.63840000     -29.06150000     -73.92160000
H      -47.99870000     -32.64990000     -73.20390000
H      -48.23230000     -29.12330000     -70.57700000
H      -46.58040000     -27.98040000     -72.04770000
C      -49.00410000     -31.68000000     -70.69670000
H      -49.99000000     -31.92140000     -71.11750000
H      -49.17380000     -30.97940000     -69.97580000
C      -46.03720000     -31.66680000     -74.81580000
H      -46.55780000     -31.37440000     -75.78120000
H      -44.98050000     -31.38120000     -74.99890000
S      -48.52170000     -33.31300000     -70.05980000
S      -46.21160000     -33.50070000     -74.75130000
C      -46.57110000     -33.16430000     -69.67530000
H      -46.06000000     -33.03840000     -70.62580000
H      -46.32300000     -32.26170000     -69.05320000
C      -44.69630000     -34.15200000     -73.86110000
H      -43.81380000     -33.60240000     -74.18610000
H      -44.54560000     -35.20300000     -74.09480000
C      -44.86750000     -34.02590000     -72.32030000
H      -45.09760000     -32.97720000     -72.07900000
H      -45.73090000     -34.64160000     -72.18050000
C      -46.14400000     -34.48160000     -69.06510000
H      -46.47260000     -35.34370000     -69.74150000
H      -46.57730000     -34.76230000     -68.08300000
C      -44.66090000     -34.77040000     -69.00100000
C      -44.07740000     -35.28920000     -67.84050000
C      -43.65000000     -34.74560000     -70.11190000
H      -44.60380000     -35.25980000     -66.90170000
C      -42.46990000     -35.33970000     -69.74280000
C      -43.65580000     -34.49820000     -71.53070000
C      -42.49640000     -34.88490000     -72.17830000
S      -42.38220000     -35.59180000     -68.03110000
S      -41.31330000     -35.43950000     -71.03990000
H      -42.04710000     -34.67750000     -73.18270000
