40
Properties=species:S:1:pos:R:3 #=T CELL(abcABC):=T 1.889726e+02=T 90.00000=T Traj:=T positionsangstrom=T Step:=T 0=T Bead:=T pbc="F F F"
C      -46.48240000     -29.57560000     -73.42530000
C      -46.57180000     -30.96080000     -73.55250000
C      -47.31350000     -31.69050000     -72.61340000
C      -48.00010000     -30.97620000     -71.62680000
C      -47.97380000     -29.52530000     -71.54530000
C      -47.18660000     -28.83670000     -72.47110000
H      -45.87380000     -29.02960000     -74.12430000
H      -47.37720000     -32.81520000     -72.55580000
H      -48.42820000     -28.91510000     -70.78790000
H      -47.13170000     -27.77700000     -72.53550000
C      -48.90040000     -31.59460000     -70.63010000
H      -49.87230000     -31.88040000     -71.12510000
H      -49.14570000     -30.92940000     -69.74700000
C      -45.92920000     -31.69900000     -74.80340000
H      -46.12780000     -31.22810000     -75.75610000
H      -44.85760000     -31.55230000     -74.63920000
S      -48.40030000     -33.29190000     -70.06740000
S      -46.17240000     -33.56610000     -74.95800000
C      -46.67800000     -33.21290000     -69.32180000
H      -46.14750000     -32.37770000     -69.83590000
H      -46.75230000     -32.78320000     -68.32220000
C      -44.80820000     -34.12590000     -73.88810000
H      -43.92850000     -33.74070000     -74.38920000
H      -44.71610000     -35.23750000     -74.11210000
C      -44.82950000     -33.83650000     -72.35220000
H      -44.84880000     -32.75140000     -72.15020000
H      -45.73870000     -34.17630000     -71.81310000
C      -46.08160000     -34.63750000     -69.24260000
H      -46.32900000     -35.13700000     -70.11790000
H      -46.64790000     -35.01380000     -68.43550000
C      -44.65250000     -34.80830000     -69.00440000
C      -44.06910000     -35.24710000     -67.79330000
C      -43.70820000     -34.73920000     -70.10400000
H      -44.61660000     -35.43830000     -66.86590000
C      -42.51370000     -35.31220000     -69.73580000
C      -43.69680000     -34.47120000     -71.54220000
C      -42.54370000     -34.91210000     -72.15450000
S      -42.41680000     -35.68950000     -68.04390000
S      -41.36010000     -35.47330000     -70.99480000
H      -42.19930000     -34.71560000     -73.17180000
