40
Properties=species:S:1:pos:R:3 #=T CELL(abcABC):=T 1.889726e+02=T 90.00000=T Traj:=T positionsangstrom=T Step:=T 0=T Bead:=T pbc="F F F"
C      -46.98230000     -30.86040000     -71.68400000
C      -46.01860000     -30.32600000     -72.60980000
C      -44.75370000     -29.98260000     -72.05820000
C      -44.36940000     -30.33230000     -70.71350000
C      -45.34440000     -30.85950000     -69.83750000
C      -46.67610000     -31.10370000     -70.27780000
H      -47.94270000     -31.11010000     -72.07260000
H      -43.98460000     -29.55860000     -72.73720000
H      -45.15150000     -31.13910000     -68.79350000
H      -47.35070000     -31.60010000     -69.61820000
C      -42.98410000     -30.27810000     -70.19900000
H      -43.05640000     -30.39180000     -69.13570000
H      -42.50300000     -29.34470000     -70.46230000
C      -46.38620000     -30.36650000     -74.00210000
H      -47.45920000     -30.34580000     -74.14670000
H      -45.85020000     -29.60460000     -74.64800000
S      -41.71880000     -31.65530000     -70.74180000
S      -45.71950000     -32.04650000     -74.55580000
C      -42.58930000     -33.08210000     -70.05860000
H      -41.76610000     -33.75440000     -69.66560000
H      -43.03680000     -32.73400000     -69.20740000
C      -46.69440000     -33.28000000     -73.59420000
H      -47.72320000     -33.38870000     -73.99100000
H      -46.91510000     -32.96040000     -72.57980000
C      -46.08840000     -34.70670000     -73.58380000
H      -46.42950000     -35.28890000     -74.43820000
H      -44.95420000     -34.61310000     -73.64100000
C      -43.52360000     -33.75490000     -71.00840000
H      -42.94430000     -34.27600000     -71.77060000
H      -44.05830000     -33.06380000     -71.65520000
C      -44.57160000     -34.71950000     -70.37970000
C      -44.31590000     -35.21100000     -69.13030000
C      -45.72240000     -35.42610000     -70.96060000
H      -43.60330000     -34.92270000     -68.35880000
C      -46.27190000     -36.36730000     -70.09620000
C      -46.37630000     -35.50410000     -72.29210000
C      -47.39740000     -36.41120000     -72.21510000
S      -45.53690000     -36.34570000     -68.51540000
S      -47.76180000     -37.09770000     -70.67930000
H      -48.12630000     -36.53300000     -73.11920000
