40
Properties=species:S:1:pos:R:3 #=T CELL(abcABC):=T 1.889726e+02=T 90.00000=T Traj:=T positionsangstrom=T Step:=T 0=T Bead:=T pbc="F F F"
C      -45.07910000     -30.37540000     -72.83200000
C      -46.08750000     -31.16870000     -73.48190000
C      -47.24700000     -31.50210000     -72.78060000
C      -47.45920000     -30.94650000     -71.48000000
C      -46.45860000     -30.12950000     -70.91830000
C      -45.30240000     -29.81610000     -71.61570000
H      -44.15450000     -30.14150000     -73.31400000
H      -47.99410000     -32.14360000     -73.20520000
H      -46.65390000     -29.59380000     -69.96910000
H      -44.63380000     -29.10400000     -71.21810000
C      -48.70410000     -31.38580000     -70.74990000
H      -49.58610000     -31.39590000     -71.41440000
H      -48.93420000     -30.63860000     -69.99560000
C      -45.91640000     -31.66340000     -74.86320000
H      -46.49580000     -31.08680000     -75.54760000
H      -44.88410000     -31.67460000     -75.23310000
S      -48.56820000     -33.03900000     -69.94460000
S      -46.55170000     -33.43960000     -75.07060000
C      -46.82180000     -33.20940000     -69.50770000
H      -46.06070000     -32.72040000     -70.05180000
H      -46.60260000     -32.88160000     -68.51330000
C      -45.22040000     -34.36270000     -73.97410000
H      -44.36890000     -33.67220000     -74.23670000
H      -45.07740000     -35.33660000     -74.49750000
C      -45.45610000     -34.62710000     -72.50550000
H      -45.97530000     -33.77900000     -72.08430000
H      -46.09330000     -35.49110000     -72.31980000
C      -46.48280000     -34.75570000     -69.50190000
H      -46.79610000     -35.20720000     -70.42770000
H      -47.06030000     -35.21390000     -68.74360000
C      -45.02540000     -34.84400000     -69.18520000
C      -44.36760000     -35.00870000     -67.92870000
C      -44.03860000     -34.83950000     -70.25540000
H      -44.88780000     -35.07710000     -67.01020000
C      -42.73410000     -34.95670000     -69.77950000
C      -44.15330000     -34.79420000     -71.70840000
C      -42.87970000     -34.92700000     -72.26820000
S      -42.68190000     -35.17560000     -68.08320000
S      -41.54220000     -35.03690000     -71.12310000
H      -42.69160000     -35.09900000     -73.30400000
