40
Properties=species:S:1:pos:R:3 #=T CELL(abcABC):=T 1.889726e+02=T 90.00000=T Traj:=T positionsangstrom=T Step:=T 0=T Bead:=T pbc="F F F"
C      -45.17180000     -30.37710000     -72.89490000
C      -46.26350000     -31.11990000     -73.41260000
C      -47.41990000     -31.33010000     -72.57180000
C      -47.50470000     -30.86150000     -71.29190000
C      -46.39800000     -30.11730000     -70.79840000
C      -45.22330000     -30.04970000     -71.51440000
H      -44.22070000     -30.21460000     -73.48170000
H      -48.27840000     -31.76120000     -73.16430000
H      -46.48090000     -29.71810000     -69.76170000
H      -44.34190000     -29.64530000     -71.02890000
C      -48.63530000     -31.16160000     -70.36390000
H      -49.63310000     -30.93450000     -70.71950000
H      -48.40430000     -30.70190000     -69.37160000
C      -46.26530000     -31.65240000     -74.85280000
H      -47.20090000     -31.30960000     -75.30650000
H      -45.48230000     -31.18820000     -75.44910000
S      -48.87100000     -32.98850000     -70.02170000
S      -46.13720000     -33.49650000     -75.05770000
C      -47.06370000     -33.35830000     -69.77880000
H      -46.51070000     -32.88980000     -70.59880000
H      -46.74260000     -32.97710000     -68.91310000
C      -44.73900000     -34.18320000     -74.04270000
H      -43.91710000     -33.45020000     -73.85780000
H      -44.25940000     -34.96050000     -74.66790000
C      -45.11610000     -34.84300000     -72.71520000
H      -45.74760000     -34.13800000     -72.18950000
H      -45.62110000     -35.78740000     -72.71560000
C      -46.59980000     -34.82700000     -69.68750000
H      -46.87390000     -35.24230000     -70.62560000
H      -47.22690000     -35.34560000     -68.96010000
C      -45.10160000     -34.83720000     -69.39120000
C      -44.66830000     -34.75040000     -68.10090000
C      -44.01250000     -34.96190000     -70.37170000
H      -45.14580000     -34.61470000     -67.13490000
C      -42.75060000     -35.02950000     -69.77960000
C      -43.91470000     -35.02410000     -71.84330000
C      -42.66500000     -35.22760000     -72.24070000
S      -42.88540000     -34.93900000     -68.01000000
S      -41.43340000     -35.12330000     -71.00750000
H      -42.45590000     -35.19450000     -73.34050000
