40
Properties=species:S:1:pos:R:3 #=T CELL(abcABC):=T 1.889726e+02=T 90.00000=T Traj:=T positionsangstrom=T Step:=T 0=T Bead:=T pbc="F F F"
C      -45.26540000     -30.19000000     -73.18240000
C      -46.29400000     -31.08190000     -73.56080000
C      -47.36770000     -31.30090000     -72.74980000
C      -47.39350000     -30.69440000     -71.49290000
C      -46.42310000     -29.84030000     -71.06480000
C      -45.28080000     -29.62310000     -71.86800000
H      -44.33160000     -30.31600000     -73.73510000
H      -48.26150000     -31.87340000     -73.05230000
H      -46.44020000     -29.54100000     -69.98060000
H      -44.31950000     -29.15730000     -71.55300000
C      -48.48650000     -31.16870000     -70.55460000
H      -49.42200000     -31.00800000     -71.09380000
H      -48.45060000     -30.56550000     -69.66370000
C      -46.18950000     -31.78850000     -74.87370000
H      -46.71770000     -31.29620000     -75.69980000
H      -45.16600000     -31.79320000     -75.17780000
S      -48.45480000     -32.95720000     -70.02470000
S      -46.66340000     -33.68190000     -74.90420000
C      -46.78990000     -33.22440000     -69.49530000
H      -46.15530000     -32.79410000     -70.26660000
H      -46.48240000     -32.64700000     -68.61240000
C      -45.41190000     -34.62320000     -73.91130000
H      -44.42400000     -34.73670000     -74.40260000
H      -45.86410000     -35.63850000     -73.78710000
C      -45.26820000     -34.02130000     -72.48360000
H      -45.16950000     -32.96280000     -72.49150000
H      -46.13520000     -34.17400000     -71.89850000
C      -46.48360000     -34.66000000     -69.13570000
H      -46.87790000     -35.37960000     -69.87290000
H      -46.91320000     -34.95370000     -68.16670000
C      -44.93270000     -34.94540000     -69.14640000
C      -44.32110000     -35.28770000     -67.97740000
C      -44.03030000     -34.96980000     -70.28460000
H      -44.81560000     -35.45410000     -67.01460000
C      -42.73220000     -35.17100000     -69.82270000
C      -44.09740000     -34.64720000     -71.71110000
C      -42.83060000     -34.78280000     -72.26340000
S      -42.60980000     -35.43990000     -68.14200000
S      -41.56590000     -35.13770000     -71.10000000
H      -42.64090000     -34.63710000     -73.34420000
