40
Properties=species:S:1:pos:R:3 #=T CELL(abcABC):=T 1.889726e+02=T 90.00000=T Traj:=T positionsangstrom=T Step:=T 0=T Bead:=T pbc="F F F"
C      -44.01760000     -29.63600000     -69.42620000
C      -44.38080000     -30.03830000     -70.70810000
C      -43.53650000     -30.85050000     -71.50510000
C      -42.31820000     -31.22020000     -70.90610000
C      -42.00660000     -30.91880000     -69.56950000
C      -42.79850000     -30.08190000     -68.85320000
H      -44.70330000     -29.01970000     -68.83140000
H      -43.89530000     -30.98750000     -72.49340000
H      -41.09270000     -31.25560000     -69.12200000
H      -42.54750000     -29.83590000     -67.78450000
C      -41.28460000     -31.97720000     -71.74050000
H      -40.47670000     -32.49750000     -71.09800000
H      -40.71860000     -31.28140000     -72.30470000
C      -45.65780000     -29.55130000     -71.32350000
H      -45.88650000     -28.46900000     -71.23540000
H      -45.78340000     -29.89550000     -72.33510000
S      -41.95920000     -33.14720000     -72.98550000
S      -47.09160000     -30.47390000     -70.36140000
C      -43.28530000     -34.11550000     -72.04730000
H      -42.80860000     -34.90090000     -71.47570000
H      -43.72830000     -33.40360000     -71.31240000
C      -46.64460000     -32.17110000     -70.58480000
H      -47.00350000     -32.66200000     -69.69260000
H      -45.60050000     -32.32990000     -70.59450000
C      -47.25030000     -32.73480000     -71.85820000
H      -48.17360000     -32.16750000     -71.97580000
H      -46.54840000     -32.55260000     -72.65780000
C      -44.39090000     -34.61610000     -72.97400000
H      -43.93900000     -34.99770000     -73.91620000
H      -44.97400000     -33.73380000     -73.26430000
C      -45.37140000     -35.61160000     -72.35900000
C      -45.03660000     -36.92480000     -72.14900000
C      -46.72770000     -35.36600000     -71.84600000
H      -44.10350000     -37.41420000     -72.31520000
C      -47.37520000     -36.52640000     -71.42710000
C      -47.57710000     -34.17520000     -71.64380000
C      -48.83490000     -34.52140000     -71.14540000
S      -46.25690000     -37.92790000     -71.49570000
S      -48.99780000     -36.27810000     -70.85330000
H      -49.47520000     -33.82610000     -70.73480000
