40
Properties=species:S:1:pos:R:3 #=T CELL(abcABC):=T 1.889726e+02=T 90.00000=T Traj:=T positionsangstrom=T Step:=T 0=T Bead:=T pbc="F F F"
C      -43.96240000     -29.57760000     -69.15710000
C      -44.38280000     -29.99080000     -70.40950000
C      -43.59980000     -30.80940000     -71.26820000
C      -42.29050000     -31.14240000     -70.93150000
C      -41.81030000     -30.63610000     -69.66050000
C      -42.60540000     -29.85430000     -68.78230000
H      -44.59220000     -28.92140000     -68.60350000
H      -43.94970000     -31.28650000     -72.18720000
H      -40.80970000     -30.79510000     -69.48690000
H      -42.22110000     -29.55890000     -67.78100000
C      -41.41280000     -32.13100000     -71.62120000
H      -41.01540000     -32.82850000     -70.88110000
H      -40.54920000     -31.73960000     -72.02730000
C      -45.71410000     -29.42380000     -70.92840000
H      -45.90020000     -28.42150000     -70.65930000
H      -45.65970000     -29.45750000     -72.01160000
S      -42.13360000     -33.05400000     -73.05730000
S      -47.26540000     -30.41310000     -70.58930000
C      -43.27230000     -34.12320000     -71.98440000
H      -42.68960000     -34.94570000     -71.53530000
H      -43.66330000     -33.55930000     -71.08240000
C      -46.73690000     -32.21450000     -70.68990000
H      -47.07910000     -32.72500000     -69.76130000
H      -45.65960000     -32.32220000     -70.72050000
C      -47.26540000     -32.86010000     -71.98790000
H      -48.15430000     -32.30630000     -72.41460000
H      -46.45840000     -32.84330000     -72.76710000
C      -44.42380000     -34.56300000     -72.91950000
H      -43.95590000     -34.95850000     -73.82770000
H      -44.97460000     -33.63800000     -73.14640000
C      -45.30280000     -35.63950000     -72.25520000
C      -44.88600000     -36.93180000     -71.99990000
C      -46.65540000     -35.40390000     -71.84780000
H      -43.89560000     -37.35950000     -72.09370000
C      -47.32230000     -36.63540000     -71.63430000
C      -47.59900000     -34.31930000     -71.76670000
C      -48.77190000     -34.65900000     -71.18470000
S      -46.19520000     -37.97350000     -71.54020000
S      -48.91030000     -36.42080000     -70.93630000
H      -49.63140000     -33.92360000     -70.92880000
