40
Properties=species:S:1:pos:R:3 #=T CELL(abcABC):=T 1.889726e+02=T 90.00000=T Traj:=T positionsangstrom=T Step:=T 0=T Bead:=T pbc="F F F"
C      -43.63750000     -30.67900000     -73.79970000
C      -44.66480000     -30.33270000     -72.93570000
C      -45.94340000     -30.93540000     -73.05360000
C      -46.16450000     -31.75880000     -74.15970000
C      -45.12990000     -31.97580000     -75.12560000
C      -43.83530000     -31.49970000     -74.95990000
H      -42.79660000     -30.06020000     -73.63720000
H      -46.65650000     -30.92560000     -72.25550000
H      -45.26470000     -32.63160000     -76.04130000
H      -43.01900000     -31.71700000     -75.64730000
C      -47.48250000     -32.40040000     -74.48020000
H      -47.97870000     -32.08540000     -75.41200000
H      -48.23630000     -32.31680000     -73.69010000
C      -44.48960000     -29.44380000     -71.68740000
H      -44.02980000     -28.45120000     -72.02330000
H      -45.44100000     -29.18640000     -71.32940000
S      -47.40610000     -34.24940000     -74.79710000
S      -43.43380000     -30.04920000     -70.30650000
C      -47.02270000     -35.15660000     -73.10220000
H      -48.05060000     -35.33110000     -72.73580000
H      -46.56040000     -36.06600000     -73.51170000
C      -43.94690000     -31.82180000     -70.08100000
H      -43.09460000     -32.27010000     -69.54640000
H      -43.90970000     -32.39000000     -71.11320000
C      -45.29190000     -32.15970000     -69.48940000
H      -45.52300000     -31.40760000     -68.76830000
H      -46.11810000     -32.06650000     -70.28680000
C      -46.17910000     -34.43280000     -72.04140000
H      -46.67760000     -33.44270000     -71.80530000
H      -45.30150000     -34.03780000     -72.45810000
C      -45.87340000     -35.34900000     -70.89940000
C      -46.03840000     -36.67990000     -70.94710000
C      -45.41900000     -34.80680000     -69.60690000
H      -46.46980000     -37.30320000     -71.71150000
C      -45.11480000     -35.87300000     -68.73820000
C      -45.19180000     -33.50760000     -68.92310000
C      -44.71650000     -33.67990000     -67.63560000
S      -45.55370000     -37.46030000     -69.32490000
S      -44.47960000     -35.41600000     -67.17690000
H      -44.40180000     -32.94330000     -66.91550000
