40
Properties=species:S:1:pos:R:3 #=T CELL(abcABC):=T 1.889726e+02=T 90.00000=T Traj:=T positionsangstrom=T Step:=T 0=T Bead:=T pbc="F F F"
C      -43.95840000     -29.57820000     -69.38750000
C      -44.38730000     -29.98280000     -70.69580000
C      -43.56740000     -30.84070000     -71.48950000
C      -42.26240000     -31.19130000     -70.98200000
C      -41.88200000     -30.86510000     -69.68500000
C      -42.71570000     -30.03820000     -68.91190000
H      -44.47930000     -28.86340000     -68.83930000
H      -43.93880000     -31.23900000     -72.41340000
H      -40.90510000     -31.01840000     -69.24880000
H      -42.40920000     -29.68860000     -67.88790000
C      -41.33680000     -31.88810000     -71.88230000
H      -40.46410000     -32.22880000     -71.31800000
H      -40.99170000     -31.10210000     -72.56550000
C      -45.75730000     -29.51260000     -71.17750000
H      -45.80410000     -28.41700000     -70.98750000
H      -45.76490000     -29.64890000     -72.28870000
S      -41.99020000     -33.32570000     -72.96360000
S      -47.20250000     -30.28320000     -70.32910000
C      -43.32780000     -34.25330000     -71.96560000
H      -42.87590000     -35.16860000     -71.62930000
H      -43.56120000     -33.61280000     -71.14560000
C      -46.81290000     -32.10390000     -70.53300000
H      -47.44060000     -32.52560000     -69.67780000
H      -45.72780000     -32.30060000     -70.26560000
C      -47.20080000     -32.74990000     -71.89090000
H      -48.07220000     -32.31930000     -72.35160000
H      -46.35120000     -32.54900000     -72.60920000
C      -44.46150000     -34.55780000     -72.92780000
H      -43.99910000     -35.06130000     -73.78410000
H      -44.97250000     -33.64380000     -73.27920000
C      -45.39830000     -35.61590000     -72.38390000
C      -45.01290000     -36.94150000     -72.33680000
C      -46.69960000     -35.38780000     -71.79110000
H      -44.07690000     -37.35240000     -72.69950000
C      -47.23190000     -36.51950000     -71.26350000
C      -47.53780000     -34.22460000     -71.62110000
C      -48.73160000     -34.61160000     -71.02980000
S      -46.34390000     -37.98470000     -71.73490000
S      -48.85250000     -36.31830000     -70.68770000
H      -49.49650000     -33.87010000     -70.86270000
