40
Properties=species:S:1:pos:R:3 #=T CELL(abcABC):=T 1.889726e+02=T 90.00000=T Traj:=T positionsangstrom=T Step:=T 0=T Bead:=T pbc="F F F"
C      -45.80650000     -30.47710000     -73.94420000
C      -46.83800000     -31.40600000     -73.80450000
C      -47.53050000     -31.58340000     -72.60330000
C      -47.28330000     -30.74220000     -71.50390000
C      -46.26210000     -29.76710000     -71.66090000
C      -45.50040000     -29.70830000     -72.80480000
H      -45.20900000     -30.32310000     -74.85260000
H      -48.27940000     -32.36540000     -72.67070000
H      -46.07210000     -29.05400000     -70.85070000
H      -44.71780000     -28.93310000     -72.81600000
C      -48.17920000     -30.74020000     -70.29580000
H      -49.19260000     -30.59080000     -70.64070000
H      -47.97690000     -29.88760000     -69.72530000
C      -47.27220000     -32.21080000     -74.97540000
H      -48.33520000     -32.39520000     -74.93970000
H      -47.07010000     -31.58440000     -75.89370000
S      -48.21720000     -32.18340000     -69.09500000
S      -46.35700000     -33.77440000     -74.94860000
C      -46.49900000     -32.87030000     -69.42000000
H      -46.16930000     -32.43720000     -70.42060000
H      -45.80930000     -32.45510000     -68.69290000
C      -44.81610000     -33.50150000     -73.98000000
H      -44.57120000     -32.46000000     -73.80600000
H      -44.11700000     -33.89240000     -74.62440000
C      -44.99110000     -34.28190000     -72.64280000
H      -45.58100000     -33.62100000     -72.04410000
H      -45.50320000     -35.23960000     -72.78290000
C      -46.39030000     -34.42890000     -69.47990000
H      -46.76390000     -34.94690000     -70.35930000
H      -46.86880000     -34.86910000     -68.57710000
C      -44.96220000     -34.77200000     -69.19500000
C      -44.56050000     -35.28620000     -68.00720000
C      -43.98400000     -34.93230000     -70.29210000
H      -45.07900000     -35.36890000     -67.08090000
C      -42.81530000     -35.48970000     -69.75690000
C      -43.83210000     -34.66670000     -71.71260000
C      -42.60360000     -34.97100000     -72.20280000
S      -42.90120000     -35.76150000     -68.01760000
S      -41.58860000     -35.67580000     -70.96410000
H      -42.29320000     -35.03380000     -73.26770000
