40
Properties=species:S:1:pos:R:3 #=T CELL(abcABC):=T 1.889726e+02=T 90.00000=T Traj:=T positionsangstrom=T Step:=T 0=T Bead:=T pbc="F F F"
C      -45.44930000     -30.05770000     -73.37140000
C      -46.36370000     -31.09130000     -73.70120000
C      -47.33890000     -31.46820000     -72.71440000
C      -47.34280000     -30.81760000     -71.50600000
C      -46.35860000     -29.85750000     -71.17410000
C      -45.34950000     -29.46860000     -72.08480000
H      -44.78610000     -29.73510000     -74.16230000
H      -47.92180000     -32.36150000     -72.80250000
H      -46.52060000     -29.44220000     -70.12670000
H      -44.65900000     -28.69500000     -71.88390000
C      -48.41780000     -31.07620000     -70.51050000
H      -49.51050000     -30.81360000     -70.82130000
H      -48.29100000     -30.45400000     -69.62330000
C      -46.26080000     -31.92280000     -74.95600000
H      -46.76580000     -31.51370000     -75.87730000
H      -45.16510000     -31.90850000     -75.28410000
S      -48.60880000     -32.88380000     -69.97720000
S      -46.72880000     -33.65490000     -74.62650000
C      -46.83010000     -33.17280000     -69.43830000
H      -46.15550000     -32.57510000     -70.12780000
H      -46.68910000     -32.76340000     -68.44130000
C      -45.14960000     -34.23840000     -73.89330000
H      -44.41280000     -33.52240000     -74.31080000
H      -44.89530000     -35.19210000     -74.32930000
C      -45.20870000     -34.15940000     -72.33230000
H      -45.39290000     -33.07930000     -72.09670000
H      -46.10230000     -34.67250000     -71.94750000
C      -46.37700000     -34.60250000     -69.36000000
H      -46.67220000     -35.08530000     -70.25520000
H      -47.03200000     -34.94150000     -68.57500000
C      -44.90930000     -34.81480000     -69.26040000
C      -44.47480000     -35.24440000     -68.06360000
C      -43.93380000     -34.91040000     -70.31700000
H      -45.06060000     -35.18770000     -67.16300000
C      -42.71230000     -35.33320000     -69.81190000
C      -43.92060000     -34.60550000     -71.69670000
C      -42.67140000     -34.74440000     -72.22810000
S      -42.67630000     -35.63010000     -68.10730000
S      -41.47920000     -35.28330000     -71.10380000
H      -42.53040000     -34.67440000     -73.28440000
