40
Properties=species:S:1:pos:R:3 #=T CELL(abcABC):=T 1.889726e+02=T 90.00000=T Traj:=T positionsangstrom=T Step:=T 0=T Bead:=T pbc="F F F"
C      -44.14050000     -29.74080000     -69.38810000
C      -44.34850000     -29.93800000     -70.71860000
C      -43.32990000     -30.65480000     -71.33910000
C      -42.21240000     -31.20860000     -70.70950000
C      -41.94880000     -30.85280000     -69.33230000
C      -42.97840000     -30.12190000     -68.72860000
H      -44.86830000     -29.25810000     -68.75850000
H      -43.48360000     -30.99560000     -72.34390000
H      -41.02180000     -31.07950000     -68.80990000
H      -42.99710000     -30.08520000     -67.62870000
C      -41.32430000     -32.23140000     -71.40520000
H      -40.84610000     -33.09290000     -70.85130000
H      -40.44560000     -31.70860000     -71.84870000
C      -45.53970000     -29.53520000     -71.43940000
H      -45.77740000     -28.48950000     -71.48080000
H      -45.39130000     -29.79380000     -72.54420000
S      -42.14290000     -33.10840000     -72.85150000
S      -46.99390000     -30.35820000     -70.69320000
C      -43.32850000     -34.04140000     -71.88730000
H      -42.90060000     -34.98260000     -71.57160000
H      -43.57010000     -33.52670000     -71.01110000
C      -46.45670000     -32.12430000     -70.94080000
H      -46.37390000     -32.66840000     -69.98100000
H      -45.45810000     -32.04890000     -71.36300000
C      -47.46780000     -32.83400000     -71.81380000
H      -48.44700000     -32.38020000     -71.62510000
H      -47.25690000     -32.53230000     -72.85120000
C      -44.53950000     -34.27240000     -72.72090000
H      -44.29410000     -34.47490000     -73.75660000
H      -45.10110000     -33.34390000     -72.86140000
C      -45.40100000     -35.49590000     -72.26940000
C      -44.96180000     -36.83510000     -72.18990000
C      -46.77050000     -35.37610000     -71.86260000
H      -43.93340000     -37.20340000     -72.25510000
C      -47.30140000     -36.58480000     -71.50430000
C      -47.65870000     -34.29670000     -71.62600000
C      -48.83700000     -34.72270000     -71.05340000
S      -46.24610000     -37.92680000     -71.63360000
S      -48.89470000     -36.48010000     -70.97490000
H      -49.57850000     -34.11990000     -70.60600000
