40
Properties=species:S:1:pos:R:3 #=T CELL(abcABC):=T 1.889726e+02=T 90.00000=T Traj:=T positionsangstrom=T Step:=T 0=T Bead:=T pbc="F F F"
C      -46.54270000     -35.68830000     -74.50880000
C      -45.37110000     -36.04690000     -73.88700000
C      -44.30720000     -35.07750000     -73.79900000
C      -44.39720000     -33.81910000     -74.42940000
C      -45.58930000     -33.56240000     -75.17330000
C      -46.67000000     -34.42050000     -75.14460000
H      -47.37430000     -36.36070000     -74.59450000
H      -43.43320000     -35.36320000     -73.24000000
H      -45.73280000     -32.58170000     -75.67920000
H      -47.60200000     -34.11260000     -75.57780000
C      -43.23960000     -32.86360000     -74.25260000
H      -43.04890000     -32.27750000     -75.11510000
H      -42.29770000     -33.42580000     -74.07860000
C      -45.18890000     -37.33210000     -73.09210000
H      -45.67580000     -38.23590000     -73.46030000
H      -44.11970000     -37.46460000     -73.07720000
S      -43.38870000     -31.65090000     -72.81930000
S      -45.87770000     -37.26650000     -71.39870000
C      -45.16260000     -31.07880000     -72.96830000
H      -45.12690000     -30.03210000     -72.69610000
H      -45.44740000     -31.12400000     -74.04260000
C      -44.85320000     -36.11260000     -70.43670000
H      -43.79730000     -36.21110000     -70.87450000
H      -44.88610000     -36.49000000     -69.39530000
C      -45.37570000     -34.62250000     -70.58880000
H      -44.83200000     -34.12310000     -71.38990000
H      -46.46740000     -34.64450000     -70.74200000
C      -46.22850000     -31.80100000     -72.04750000
H      -46.28480000     -32.85070000     -72.28130000
H      -47.24530000     -31.47410000     -72.38340000
C      -46.11670000     -31.48090000     -70.59490000
C      -46.40970000     -30.17770000     -70.18120000
C      -45.68390000     -32.33280000     -69.56170000
H      -46.67730000     -29.40660000     -70.85530000
C      -45.74040000     -31.66850000     -68.32780000
C      -45.24000000     -33.68390000     -69.35420000
C      -44.98410000     -34.00220000     -68.03140000
S      -46.23380000     -29.93390000     -68.44820000
S      -45.17080000     -32.52050000     -66.91720000
H      -44.48370000     -34.84080000     -67.56950000
