40
Properties=species:S:1:pos:R:3 #=T CELL(abcABC):=T 1.889726e+02=T 90.00000=T Traj:=T positionsangstrom=T Step:=T 0=T Bead:=T pbc="F F F"
C      -41.50160000     -32.04310000     -69.57160000
C      -41.78760000     -32.43500000     -70.87060000
C      -42.64250000     -31.67980000     -71.70240000
C      -43.31350000     -30.61180000     -71.07880000
C      -42.95670000     -30.15870000     -69.80600000
C      -42.00560000     -30.82910000     -69.03010000
H      -40.84670000     -32.56040000     -68.90180000
H      -42.86650000     -31.92840000     -72.77710000
H      -43.39670000     -29.24660000     -69.46880000
H      -41.68620000     -30.49220000     -68.05980000
C      -44.29200000     -29.78070000     -71.92930000
H      -44.39580000     -30.15220000     -72.94030000
H      -44.09110000     -28.68940000     -71.92460000
C      -40.99580000     -33.62330000     -71.36630000
H      -40.12320000     -33.34630000     -71.97490000
H      -40.66310000     -34.28550000     -70.52070000
S      -45.94900000     -29.76910000     -71.14780000
S      -41.99960000     -34.71800000     -72.58200000
C      -46.32260000     -31.57570000     -71.00070000
H      -45.43730000     -32.08310000     -70.67420000
H      -47.07440000     -31.63780000     -70.25640000
C      -43.37300000     -35.58150000     -71.53390000
H      -42.99020000     -35.43600000     -70.54690000
H      -43.37000000     -36.61010000     -71.89950000
C      -44.71040000     -34.78540000     -71.75380000
H      -44.64230000     -33.83080000     -71.16480000
H      -44.91960000     -34.49040000     -72.77470000
C      -46.83110000     -32.21370000     -72.36510000
H      -45.99470000     -32.49990000     -72.98370000
H      -47.34460000     -31.39430000     -72.90900000
C      -47.68560000     -33.41640000     -72.04420000
C      -49.04910000     -33.38240000     -72.25310000
C      -47.26360000     -34.63300000     -71.39860000
H      -49.73020000     -32.62750000     -72.49030000
C      -48.30990000     -35.45640000     -71.12640000
C      -45.99410000     -35.42420000     -71.37550000
C      -46.17750000     -36.71120000     -71.01220000
S      -49.89150000     -34.74550000     -71.49390000
S      -47.89860000     -37.11950000     -70.79130000
H      -45.41010000     -37.46920000     -70.82530000
