40
Properties=species:S:1:pos:R:3 #=T CELL(abcABC):=T 1.889726e+02=T 90.00000=T Traj:=T positionsangstrom=T Step:=T 0=T Bead:=T pbc="F F F"
C      -45.92720000     -31.76780000     -74.81440000
C      -46.86870000     -32.22580000     -73.90860000
C      -47.04310000     -31.51790000     -72.71740000
C      -46.50270000     -30.22390000     -72.56160000
C      -45.70590000     -29.73780000     -73.56770000
C      -45.38720000     -30.47580000     -74.68610000
H      -45.69060000     -32.41010000     -75.70240000
H      -47.83940000     -31.72060000     -71.97330000
H      -45.22110000     -28.78770000     -73.36310000
H      -44.59480000     -30.03760000     -75.37920000
C      -46.57890000     -29.45570000     -71.28160000
H      -47.25480000     -28.58220000     -71.48940000
H      -45.57020000     -29.15480000     -70.94730000
C      -47.56740000     -33.56760000     -74.02590000
H      -47.80500000     -33.95500000     -72.99740000
H      -48.57050000     -33.56450000     -74.58620000
S      -47.23330000     -30.38580000     -69.83890000
S      -46.68620000     -35.04750000     -74.69980000
C      -45.79450000     -31.50750000     -69.36290000
H      -44.94070000     -31.34400000     -70.02210000
H      -45.55230000     -31.28400000     -68.30950000
C      -45.19060000     -35.28280000     -73.64940000
H      -44.43370000     -34.56920000     -73.88790000
H      -44.92210000     -36.29910000     -73.81160000
C      -45.52980000     -34.96590000     -72.20970000
H      -45.76010000     -33.91050000     -72.05070000
H      -46.36590000     -35.59410000     -71.70100000
C      -46.21170000     -33.00600000     -69.34170000
H      -46.59420000     -33.39490000     -70.33250000
H      -47.08910000     -33.07680000     -68.68470000
C      -45.05660000     -33.92410000     -68.90000000
C      -44.51350000     -33.96290000     -67.65310000
C      -44.43240000     -34.85790000     -69.79280000
H      -44.72640000     -33.27070000     -66.84710000
C      -43.33840000     -35.44630000     -69.12900000
C      -44.40160000     -35.18490000     -71.21350000
C      -43.35770000     -36.03770000     -71.56270000
S      -43.17410000     -35.00530000     -67.48320000
S      -42.34940000     -36.40000000     -70.20020000
H      -43.18190000     -36.56460000     -72.53110000
