40
Properties=species:S:1:pos:R:3 #=T CELL(abcABC):=T 1.889726e+02=T 90.00000=T Traj:=T positionsangstrom=T Step:=T 0=T Bead:=T pbc="F F F"
C      -46.07020000     -31.69990000     -74.95600000
C      -46.89720000     -32.24540000     -73.97010000
C      -47.01020000     -31.52260000     -72.72500000
C      -46.35930000     -30.32290000     -72.49650000
C      -45.49400000     -29.87670000     -73.52270000
C      -45.22960000     -30.59260000     -74.71120000
H      -45.89920000     -32.24910000     -75.84700000
H      -47.58580000     -32.00650000     -71.94890000
H      -45.07930000     -28.88580000     -73.34900000
H      -44.51000000     -30.17360000     -75.38860000
C      -46.77500000     -29.43770000     -71.36600000
H      -47.72980000     -29.00190000     -71.62900000
H      -46.24340000     -28.50650000     -71.22950000
C      -47.79110000     -33.48990000     -74.10950000
H      -48.34640000     -33.65520000     -73.24570000
H      -48.47180000     -33.37590000     -74.90090000
S      -47.15320000     -30.35030000     -69.81090000
S      -46.82790000     -35.01490000     -74.71460000
C      -45.70570000     -31.47070000     -69.59720000
H      -45.06290000     -31.35660000     -70.53400000
H      -45.10410000     -31.15100000     -68.78050000
C      -45.36110000     -35.20660000     -73.52870000
H      -44.37790000     -34.93130000     -74.07440000
H      -45.19190000     -36.28540000     -73.54910000
C      -45.47050000     -34.72560000     -72.10390000
H      -45.59700000     -33.69200000     -72.11910000
H      -46.38270000     -35.05510000     -71.73770000
C      -46.15820000     -32.97280000     -69.34120000
H      -46.68990000     -33.32070000     -70.23410000
H      -46.89260000     -33.02460000     -68.50510000
C      -44.94920000     -33.82810000     -68.94240000
C      -44.44730000     -33.76180000     -67.68530000
C      -44.23620000     -34.80560000     -69.83390000
H      -44.92170000     -33.24830000     -66.92140000
C      -43.29980000     -35.45200000     -69.08060000
C      -44.37990000     -35.26080000     -71.22870000
C      -43.46180000     -36.29090000     -71.48520000
S      -43.12240000     -34.96370000     -67.44780000
S      -42.42360000     -36.60890000     -70.07740000
H      -43.06260000     -36.65860000     -72.42620000
