40
Properties=species:S:1:pos:R:3 #=T CELL(abcABC):=T 1.889726e+02=T 90.00000=T Traj:=T positionsangstrom=T Step:=T 0=T Bead:=T pbc="F F F"
C      -43.18590000     -31.08040000     -69.53600000
C      -42.71580000     -31.82840000     -70.63060000
C      -43.17450000     -31.44470000     -71.91980000
C      -44.15450000     -30.45960000     -72.00890000
C      -44.53990000     -29.72250000     -70.90370000
C      -44.01360000     -30.03710000     -69.64650000
H      -42.87640000     -31.34570000     -68.52000000
H      -42.85870000     -31.99230000     -72.81660000
H      -45.30930000     -28.94750000     -71.03310000
H      -44.29670000     -29.48320000     -68.77700000
C      -44.75100000     -30.13720000     -73.32780000
H      -44.37270000     -30.80630000     -74.07970000
H      -44.55240000     -29.03920000     -73.54450000
C      -41.55910000     -32.85530000     -70.38850000
H      -40.59040000     -32.27670000     -70.40090000
H      -41.70370000     -33.32330000     -69.37510000
S      -46.59100000     -30.09720000     -73.16650000
S      -41.31800000     -34.20750000     -71.56670000
C      -47.03040000     -31.49250000     -72.00710000
H      -46.66430000     -31.26960000     -70.98050000
H      -48.17220000     -31.40050000     -71.96780000
C      -42.75530000     -35.25290000     -71.04120000
H      -42.62350000     -35.35040000     -69.92990000
H      -42.59040000     -36.19910000     -71.55020000
C      -44.11250000     -34.70080000     -71.39240000
H      -44.21370000     -33.71960000     -71.05240000
H      -44.16780000     -34.60560000     -72.59340000
C      -46.52210000     -32.84580000     -72.56960000
H      -45.46150000     -32.87590000     -72.62240000
H      -46.81720000     -32.83150000     -73.62350000
C      -47.22740000     -33.89190000     -71.80670000
C      -48.57980000     -33.91250000     -71.79970000
C      -46.63980000     -35.08430000     -71.22630000
H      -49.30480000     -33.12790000     -72.09470000
C      -47.63090000     -35.95710000     -70.74320000
C      -45.33070000     -35.53110000     -71.00410000
C      -45.29830000     -36.67020000     -70.17510000
S      -49.21790000     -35.39240000     -71.00730000
S      -46.91930000     -37.28360000     -69.87830000
H      -44.47770000     -37.31500000     -69.91330000
