40
Properties=species:S:1:pos:R:3 #=T CELL(abcABC):=T 1.889726e+02=T 90.00000=T Traj:=T positionsangstrom=T Step:=T 0=T Bead:=T pbc="F F F"
C      -45.53680000     -31.84440000     -74.84930000
C      -46.81890000     -31.87260000     -74.29330000
C      -47.10510000     -31.15360000     -73.12570000
C      -46.12330000     -30.23040000     -72.57910000
C      -44.88080000     -30.19170000     -73.27230000
C      -44.58400000     -31.00300000     -74.37950000
H      -45.34380000     -32.36340000     -75.88910000
H      -48.09490000     -31.36200000     -72.65220000
H      -44.13100000     -29.48000000     -72.94300000
H      -43.65900000     -30.97640000     -74.83120000
C      -46.47700000     -29.40180000     -71.38460000
H      -47.37410000     -28.73280000     -71.48740000
H      -45.70550000     -28.68630000     -71.17870000
C      -47.68570000     -32.92050000     -74.98660000
H      -48.78530000     -32.66180000     -74.94050000
H      -47.46180000     -33.09020000     -76.01190000
S      -46.80300000     -30.41420000     -69.83100000
S      -47.51020000     -34.57350000     -74.16810000
C      -45.39550000     -31.61740000     -69.63520000
H      -45.04930000     -31.90930000     -70.62960000
H      -44.55320000     -31.01350000     -69.20470000
C      -45.92230000     -34.66320000     -73.29020000
H      -45.24310000     -33.93700000     -73.73880000
H      -45.52590000     -35.60210000     -73.51340000
C      -46.02630000     -34.59820000     -71.76160000
H      -46.16320000     -33.55200000     -71.43950000
H      -47.04490000     -34.98850000     -71.50180000
C      -45.80530000     -32.80350000     -68.82140000
H      -46.73130000     -33.23550000     -69.20830000
H      -46.01310000     -32.48250000     -67.69760000
C      -44.66720000     -33.85200000     -68.74640000
C      -43.78760000     -33.91030000     -67.71120000
C      -44.40240000     -34.81930000     -69.75970000
H      -43.90810000     -33.37550000     -66.86440000
C      -43.43630000     -35.69150000     -69.31060000
C      -44.93170000     -35.31910000     -71.03600000
C      -44.29560000     -36.43740000     -71.47010000
S      -42.64540000     -35.26110000     -67.76940000
S      -43.08640000     -36.99230000     -70.39340000
H      -44.35500000     -37.02040000     -72.38660000
