40
Properties=species:S:1:pos:R:3 #=T CELL(abcABC):=T 1.889726e+02=T 90.00000=T Traj:=T positionsangstrom=T Step:=T 0=T Bead:=T pbc="F F F"
C      -45.51750000     -31.95030000     -74.78290000
C      -46.67570000     -32.03430000     -74.00720000
C      -46.88030000     -31.20090000     -72.93080000
C      -45.93310000     -30.22800000     -72.57160000
C      -44.79990000     -30.08220000     -73.34430000
C      -44.60150000     -30.88380000     -74.45000000
H      -45.33450000     -32.56020000     -75.69040000
H      -47.82320000     -31.30910000     -72.39670000
H      -44.05960000     -29.33110000     -73.15010000
H      -43.80630000     -30.72950000     -75.14910000
C      -46.31670000     -29.29480000     -71.37350000
H      -47.17620000     -28.71550000     -71.71240000
H      -45.55720000     -28.64210000     -71.01120000
C      -47.75360000     -32.98800000     -74.27270000
H      -48.59790000     -32.92350000     -73.58320000
H      -48.24600000     -32.74790000     -75.22830000
S      -47.00090000     -30.30610000     -69.91410000
S      -47.12070000     -34.81770000     -74.53490000
C      -45.70830000     -31.59080000     -69.62640000
H      -45.18880000     -31.71640000     -70.58020000
H      -44.98840000     -31.15790000     -68.92480000
C      -45.74010000     -34.90990000     -73.37490000
H      -45.16470000     -33.97300000     -73.47580000
H      -45.00430000     -35.71590000     -73.79880000
C      -46.14040000     -35.13170000     -71.96110000
H      -46.50350000     -34.15170000     -71.52600000
H      -46.94710000     -35.79100000     -71.84180000
C      -46.20510000     -32.96550000     -69.14220000
H      -46.81400000     -33.54840000     -69.77510000
H      -46.80940000     -32.85720000     -68.19890000
C      -45.00690000     -33.82340000     -68.84230000
C      -44.24770000     -33.76880000     -67.66560000
C      -44.48220000     -34.83900000     -69.79360000
H      -44.53320000     -33.13450000     -66.76110000
C      -43.38940000     -35.50290000     -69.25260000
C      -44.89700000     -35.48410000     -71.04500000
C      -44.02740000     -36.46590000     -71.44640000
S      -42.96370000     -34.91990000     -67.66660000
S      -42.74910000     -36.84340000     -70.27240000
H      -44.03390000     -37.01930000     -72.43180000
