40
Properties=species:S:1:pos:R:3 #=T CELL(abcABC):=T 1.889726e+02=T 90.00000=T Traj:=T positionsangstrom=T Step:=T 0=T Bead:=T pbc="F F F"
C      -45.41340000     -31.82450000     -74.68100000
C      -46.67210000     -31.90930000     -74.05380000
C      -46.92210000     -30.98470000     -73.03570000
C      -45.96880000     -30.10320000     -72.56770000
C      -44.70740000     -30.08510000     -73.21580000
C      -44.49150000     -30.93030000     -74.27740000
H      -45.18360000     -32.43380000     -75.50860000
H      -47.97270000     -30.91270000     -72.59120000
H      -44.00570000     -29.22450000     -72.99480000
H      -43.58710000     -30.76970000     -74.79150000
C      -46.27050000     -29.28720000     -71.37720000
H      -47.08610000     -28.61610000     -71.65650000
H      -45.42420000     -28.69940000     -71.10690000
C      -47.68630000     -32.85920000     -74.59620000
H      -48.67970000     -32.76800000     -74.02670000
H      -47.83200000     -32.67300000     -75.63280000
S      -46.80370000     -30.32000000     -69.92220000
S      -47.40520000     -34.75020000     -74.36260000
C      -45.61120000     -31.71160000     -69.93560000
H      -45.53300000     -32.10580000     -70.96030000
H      -44.65880000     -31.34100000     -69.62740000
C      -45.85050000     -34.91230000     -73.29230000
H      -45.20930000     -33.97470000     -73.46720000
H      -45.23400000     -35.75770000     -73.57890000
C      -46.15140000     -34.94740000     -71.79660000
H      -46.39580000     -33.96500000     -71.48000000
H      -46.99550000     -35.60040000     -71.61060000
C      -46.07810000     -32.82870000     -69.02620000
H      -47.05270000     -33.38870000     -69.25530000
H      -46.31180000     -32.49030000     -68.03410000
C      -44.93690000     -33.88010000     -68.88230000
C      -44.16120000     -33.85160000     -67.74030000
C      -44.55630000     -34.99290000     -69.72790000
H      -44.32530000     -33.04550000     -66.93080000
C      -43.40130000     -35.61090000     -69.27640000
C      -45.03200000     -35.55020000     -71.00560000
C      -44.22170000     -36.56920000     -71.44810000
S      -42.81700000     -34.98220000     -67.78560000
S      -42.90030000     -36.98040000     -70.28650000
H      -44.44830000     -37.26520000     -72.34260000
