40
Properties=species:S:1:pos:R:3 #=T CELL(abcABC):=T 1.889726e+02=T 90.00000=T Traj:=T positionsangstrom=T Step:=T 0=T Bead:=T pbc="F F F"
C      -45.71610000     -31.78930000     -74.99330000
C      -46.84400000     -32.10620000     -74.17370000
C      -47.01290000     -31.34700000     -72.98160000
C      -46.17210000     -30.32980000     -72.56900000
C      -45.03930000     -30.05200000     -73.37030000
C      -44.83720000     -30.82810000     -74.49200000
H      -45.45540000     -32.36590000     -75.89180000
H      -47.83910000     -31.58970000     -72.28060000
H      -44.32290000     -29.27600000     -73.02390000
H      -43.91230000     -30.55180000     -75.06320000
C      -46.43370000     -29.45010000     -71.34880000
H      -47.23370000     -28.79510000     -71.59250000
H      -45.60700000     -28.78220000     -71.24840000
C      -47.84410000     -33.24130000     -74.34860000
H      -48.35180000     -33.36790000     -73.39310000
H      -48.60590000     -33.16420000     -75.09250000
S      -46.93180000     -30.31280000     -69.79550000
S      -46.98520000     -34.83510000     -74.69510000
C      -45.72970000     -31.61660000     -69.57490000
H      -45.13590000     -31.69890000     -70.49430000
H      -45.01950000     -31.30870000     -68.82750000
C      -45.62590000     -35.10570000     -73.41640000
H      -44.71930000     -34.50990000     -73.69900000
H      -45.36500000     -36.10420000     -73.57940000
C      -45.87500000     -34.81400000     -71.94530000
H      -45.88500000     -33.74340000     -71.73880000
H      -46.91460000     -35.12670000     -71.58310000
C      -46.23450000     -33.01620000     -69.07900000
H      -46.98360000     -33.43330000     -69.78100000
H      -46.80370000     -32.91890000     -68.15450000
C      -45.03470000     -33.85300000     -68.83890000
C      -44.23490000     -33.68180000     -67.74650000
C      -44.51600000     -34.90290000     -69.67460000
H      -44.40940000     -33.05090000     -66.88700000
C      -43.41380000     -35.58160000     -69.12100000
C      -44.81530000     -35.42060000     -70.99370000
C      -43.86310000     -36.33860000     -71.39770000
S      -42.86750000     -34.80000000     -67.67810000
S      -42.71280000     -36.79870000     -70.16910000
H      -43.78950000     -36.77300000     -72.33140000
