40
Properties=species:S:1:pos:R:3 #=T CELL(abcABC):=T 1.889726e+02=T 90.00000=T Traj:=T positionsangstrom=T Step:=T 0=T Bead:=T pbc="F F F"
C      -44.71990000     -31.87940000     -74.67470000
C      -46.07960000     -32.01750000     -74.36960000
C      -46.66220000     -31.12670000     -73.42400000
C      -45.91880000     -30.23090000     -72.60510000
C      -44.53550000     -30.23100000     -72.83950000
C      -43.98030000     -31.01230000     -73.86990000
H      -44.27430000     -32.64140000     -75.31080000
H      -47.73110000     -31.24050000     -73.15400000
H      -43.83560000     -29.67080000     -72.17700000
H      -42.90090000     -31.04700000     -73.95240000
C      -46.61440000     -29.56760000     -71.41330000
H      -47.49310000     -29.07280000     -71.66920000
H      -45.96960000     -28.90570000     -70.92080000
C      -46.92170000     -33.15180000     -74.95600000
H      -47.48680000     -32.81680000     -75.82040000
H      -46.20880000     -33.96000000     -75.21220000
S      -46.98300000     -30.85610000     -70.16480000
S      -48.14130000     -33.88480000     -73.69790000
C      -45.47870000     -31.48820000     -69.53940000
H      -44.83440000     -31.84030000     -70.40790000
H      -44.94760000     -30.58800000     -69.04600000
C      -47.18610000     -35.09230000     -72.66090000
H      -46.35690000     -35.48800000     -73.33980000
H      -47.90960000     -35.85000000     -72.28230000
C      -46.44900000     -34.42020000     -71.46370000
H      -45.91200000     -33.66540000     -72.01770000
H      -47.06600000     -33.99660000     -70.75760000
C      -45.61180000     -32.82030000     -68.63870000
H      -46.56610000     -33.20540000     -68.91030000
H      -45.61720000     -32.44480000     -67.63490000
C      -44.47300000     -33.81640000     -68.79610000
C      -43.47570000     -33.90230000     -67.84830000
C      -44.42570000     -34.82990000     -69.83460000
H      -43.35180000     -33.19810000     -67.02470000
C      -43.35850000     -35.70800000     -69.58760000
C      -45.24120000     -35.19260000     -70.93880000
C      -44.80560000     -36.37780000     -71.52710000
S      -42.36980000     -35.22790000     -68.21740000
S      -43.32620000     -37.00860000     -70.74430000
H      -45.18300000     -36.84440000     -72.38920000
