40
Properties=species:S:1:pos:R:3 #=T CELL(abcABC):=T 1.889726e+02=T 90.00000=T Traj:=T positionsangstrom=T Step:=T 0=T Bead:=T pbc="F F F"
C      -44.89840000     -31.61420000     -74.77690000
C      -46.16810000     -31.98250000     -74.25460000
C      -46.74610000     -31.28100000     -73.20090000
C      -46.04110000     -30.23510000     -72.56100000
C      -44.77850000     -29.87050000     -73.05780000
C      -44.22950000     -30.55840000     -74.18150000
H      -44.50320000     -32.09180000     -75.63490000
H      -47.71710000     -31.67270000     -72.93380000
H      -44.28990000     -29.08540000     -72.59830000
H      -43.33870000     -30.21710000     -74.77590000
C      -46.60000000     -29.50860000     -71.33140000
H      -47.58830000     -29.12500000     -71.58590000
H      -46.05190000     -28.67310000     -71.01010000
C      -46.89740000     -33.16750000     -74.81050000
H      -47.53850000     -32.84130000     -75.63850000
H      -46.16330000     -33.82710000     -75.34300000
S      -47.01720000     -30.68950000     -69.95950000
S      -48.05180000     -34.12120000     -73.77890000
C      -45.40390000     -31.62230000     -69.92370000
H      -45.28630000     -32.08190000     -70.91910000
H      -44.52790000     -30.90510000     -69.75670000
C      -47.02230000     -35.09320000     -72.61420000
H      -46.24240000     -35.59730000     -73.21060000
H      -47.74420000     -35.84860000     -72.19820000
C      -46.21970000     -34.39630000     -71.56570000
H      -45.77800000     -33.55630000     -72.06780000
H      -46.82520000     -33.84260000     -70.82940000
C      -45.53300000     -32.74680000     -68.84800000
H      -46.51850000     -33.20690000     -69.04110000
H      -45.72620000     -32.24080000     -67.91350000
C      -44.48850000     -33.82780000     -68.78560000
C      -43.59580000     -34.01910000     -67.75700000
C      -44.36720000     -34.87910000     -69.79450000
H      -43.53790000     -33.72890000     -66.75150000
C      -43.30460000     -35.78180000     -69.53170000
C      -45.07430000     -35.22390000     -70.97980000
C      -44.52530000     -36.29610000     -71.62180000
S      -42.52650000     -35.47350000     -68.03200000
S      -43.22320000     -37.01470000     -70.73940000
H      -44.84340000     -36.77330000     -72.57150000
