40
Properties=species:S:1:pos:R:3 #=T CELL(abcABC):=T 1.889726e+02=T 90.00000=T Traj:=T positionsangstrom=T Step:=T 0=T Bead:=T pbc="F F F"
C      -44.94500000     -32.42520000     -74.42260000
C      -46.28800000     -32.30290000     -74.09460000
C      -46.62660000     -31.31750000     -73.12220000
C      -45.71970000     -30.50650000     -72.47010000
C      -44.36520000     -30.65740000     -72.81670000
C      -44.04020000     -31.54070000     -73.81360000
H      -44.54650000     -33.11040000     -75.23160000
H      -47.67730000     -31.06720000     -72.97700000
H      -43.57110000     -30.01730000     -72.48120000
H      -42.96400000     -31.56530000     -74.12570000
C      -46.11680000     -29.41240000     -71.44960000
H      -46.97290000     -28.86770000     -71.84750000
H      -45.36560000     -28.64990000     -71.23300000
C      -47.43040000     -33.00340000     -74.84930000
H      -48.26520000     -32.28060000     -74.95800000
H      -47.10530000     -33.47930000     -75.77530000
S      -46.71990000     -30.32930000     -69.92410000
S      -48.32640000     -34.17110000     -73.73490000
C      -45.36510000     -31.48420000     -69.67520000
H      -45.06480000     -31.83480000     -70.72420000
H      -44.48430000     -30.95570000     -69.26120000
C      -46.87490000     -35.05200000     -73.00490000
H      -46.02660000     -34.87460000     -73.66280000
H      -47.13950000     -36.13300000     -73.15130000
C      -46.59200000     -34.58170000     -71.51590000
H      -46.52270000     -33.50910000     -71.55320000
H      -47.41770000     -34.93700000     -70.90930000
C      -45.65060000     -32.61950000     -68.73830000
H      -46.70810000     -33.01570000     -68.98140000
H      -45.81550000     -32.08880000     -67.75990000
C      -44.55230000     -33.69980000     -68.82460000
C      -43.49710000     -33.79060000     -67.98390000
C      -44.50330000     -34.74730000     -69.87820000
H      -43.23780000     -33.19780000     -67.09150000
C      -43.46610000     -35.58890000     -69.62050000
C      -45.26690000     -35.12850000     -71.05540000
C      -44.62630000     -36.16820000     -71.73450000
S      -42.48890000     -35.15720000     -68.31500000
S      -43.28300000     -36.89060000     -70.74590000
H      -44.95750000     -36.71200000     -72.64480000
