40
Properties=species:S:1:pos:R:3 #=T CELL(abcABC):=T 1.889726e+02=T 90.00000=T Traj:=T positionsangstrom=T Step:=T 0=T Bead:=T pbc="F F F"
C      -44.80050000     -32.27920000     -74.53720000
C      -46.19560000     -32.20000000     -74.24090000
C      -46.64300000     -31.22490000     -73.31670000
C      -45.81140000     -30.37340000     -72.53390000
C      -44.46310000     -30.44370000     -72.88890000
C      -44.01600000     -31.34440000     -73.86410000
H      -44.33960000     -32.97840000     -75.30630000
H      -47.74600000     -31.15470000     -73.13410000
H      -43.73710000     -29.84820000     -72.33770000
H      -42.93550000     -31.21310000     -74.03710000
C      -46.37190000     -29.53150000     -71.41830000
H      -47.24640000     -28.91740000     -71.71680000
H      -45.62190000     -28.77800000     -70.95590000
C      -47.14760000     -33.15160000     -74.91950000
H      -47.66960000     -32.59190000     -75.66350000
H      -46.65140000     -33.87320000     -75.57900000
S      -46.94600000     -30.64000000     -70.05080000
S      -48.25970000     -33.95360000     -73.71030000
C      -45.35320000     -31.61020000     -69.73790000
H      -45.03030000     -32.05500000     -70.67790000
H      -44.58760000     -31.04940000     -69.39960000
C      -47.00590000     -34.98210000     -72.80580000
H      -46.28260000     -35.37870000     -73.49460000
H      -47.59710000     -35.80170000     -72.43020000
C      -46.42840000     -34.36590000     -71.47970000
H      -46.01110000     -33.33890000     -71.57640000
H      -47.23810000     -34.07590000     -70.74660000
C      -45.64130000     -32.68350000     -68.70010000
H      -46.63380000     -33.21720000     -68.85440000
H      -45.61540000     -32.36250000     -67.69950000
C      -44.51050000     -33.72980000     -68.79190000
C      -43.48950000     -33.84430000     -67.88130000
C      -44.51610000     -34.81590000     -69.73750000
H      -43.58160000     -33.34400000     -66.89260000
C      -43.43960000     -35.63400000     -69.56850000
C      -45.31290000     -35.18470000     -70.90260000
C      -44.73620000     -36.29320000     -71.49730000
S      -42.38030000     -35.20000000     -68.27470000
S      -43.25150000     -36.86390000     -70.82590000
H      -45.23070000     -36.81940000     -72.30370000
