40
Properties=species:S:1:pos:R:3 #=T CELL(abcABC):=T 1.889726e+02=T 90.00000=T Traj:=T positionsangstrom=T Step:=T 0=T Bead:=T pbc="F F F"
C      -45.68730000     -32.64310000     -74.63270000
C      -46.82140000     -32.08120000     -74.01960000
C      -46.65400000     -31.12260000     -72.98650000
C      -45.38030000     -30.62960000     -72.72260000
C      -44.29140000     -31.15260000     -73.46640000
C      -44.43750000     -32.10440000     -74.42190000
H      -45.79960000     -33.48680000     -75.36450000
H      -47.59850000     -30.68750000     -72.56830000
H      -43.25070000     -30.79100000     -73.24740000
H      -43.49170000     -32.50100000     -74.95550000
C      -45.19640000     -29.55840000     -71.64040000
H      -45.72080000     -28.61760000     -71.89790000
H      -44.14890000     -29.35500000     -71.49110000
C      -48.17720000     -32.62340000     -74.31890000
H      -49.01110000     -31.85530000     -74.04310000
H      -48.24480000     -32.65580000     -75.45850000
S      -45.93210000     -30.03630000     -69.96230000
S      -48.52450000     -34.24870000     -73.57440000
C      -44.91580000     -31.49390000     -69.54910000
H      -44.48740000     -32.02690000     -70.42360000
H      -44.00030000     -31.15220000     -68.95980000
C      -46.96970000     -34.97970000     -72.87820000
H      -46.23720000     -35.16530000     -73.62900000
H      -47.34060000     -35.94250000     -72.47100000
C      -46.36930000     -34.24370000     -71.68540000
H      -46.19000000     -33.22450000     -71.93030000
H      -47.12340000     -34.11770000     -70.84840000
C      -45.58030000     -32.58200000     -68.77250000
H      -46.66790000     -32.80040000     -68.98330000
H      -45.65180000     -32.13540000     -67.71150000
C      -44.66710000     -33.80060000     -68.72320000
C      -43.72330000     -33.97040000     -67.75610000
C      -44.60080000     -34.80590000     -69.79160000
H      -43.35960000     -33.31240000     -66.95220000
C      -43.64470000     -35.74160000     -69.47090000
C      -45.13800000     -34.93090000     -71.08140000
C      -44.54680000     -35.96930000     -71.75640000
S      -42.75450000     -35.39330000     -68.04090000
S      -43.30390000     -36.72390000     -70.93590000
H      -44.74700000     -36.25970000     -72.80470000
