40
Properties=species:S:1:pos:R:3 #=T CELL(abcABC):=T 1.889726e+02=T 90.00000=T Traj:=T positionsangstrom=T Step:=T 0=T Bead:=T pbc="F F F"
C      -45.41100000     -31.94270000     -74.97740000
C      -46.54790000     -31.84070000     -74.11330000
C      -46.42940000     -31.04690000     -72.98220000
C      -45.27860000     -30.27850000     -72.76670000
C      -44.16660000     -30.40630000     -73.61140000
C      -44.23670000     -31.28920000     -74.69210000
H      -45.52460000     -32.62580000     -75.81130000
H      -47.27380000     -30.86040000     -72.28780000
H      -43.21480000     -29.86170000     -73.53740000
H      -43.31140000     -31.43470000     -75.21230000
C      -45.26890000     -29.30550000     -71.56710000
H      -46.00630000     -28.55680000     -71.70210000
H      -44.25680000     -28.87790000     -71.40720000
C      -47.89430000     -32.47710000     -74.53420000
H      -48.60680000     -31.70550000     -74.58660000
H      -47.88930000     -33.04360000     -75.44850000
S      -45.85290000     -30.27550000     -70.01470000
S      -48.61680000     -33.54490000     -73.20190000
C      -44.85520000     -31.79930000     -69.81350000
H      -44.80820000     -32.17440000     -70.89370000
H      -43.90050000     -31.47050000     -69.59350000
C      -47.34160000     -34.85620000     -72.61460000
H      -46.97660000     -35.39250000     -73.52600000
H      -47.89860000     -35.63220000     -72.08740000
C      -46.21940000     -34.23040000     -71.85080000
H      -45.56460000     -33.72490000     -72.59380000
H      -46.59420000     -33.53970000     -71.15270000
C      -45.38990000     -32.74600000     -68.74840000
H      -46.49700000     -33.00660000     -68.77280000
H      -45.33370000     -32.26590000     -67.67750000
C      -44.58070000     -34.06890000     -68.71120000
C      -43.64170000     -34.32650000     -67.74560000
C      -44.64720000     -35.06520000     -69.74410000
H      -43.45690000     -33.63640000     -66.94030000
C      -43.70670000     -36.07510000     -69.51970000
C      -45.31020000     -35.20150000     -71.04970000
C      -44.90890000     -36.38460000     -71.62310000
S      -42.77010000     -35.80900000     -68.04240000
S      -43.66220000     -37.23240000     -70.81430000
H      -45.15800000     -36.67880000     -72.70190000
