40
Properties=species:S:1:pos:R:3 #=T CELL(abcABC):=T 1.889726e+02=T 90.00000=T Traj:=T positionsangstrom=T Step:=T 0=T Bead:=T pbc="F F F"
C      -45.30280000     -32.55580000     -74.52650000
C      -46.58380000     -32.13180000     -74.08770000
C      -46.64030000     -31.12480000     -73.15430000
C      -45.53510000     -30.46050000     -72.59230000
C      -44.28090000     -30.97980000     -72.93520000
C      -44.14530000     -32.00870000     -73.95950000
H      -45.15150000     -33.26930000     -75.25310000
H      -47.59870000     -30.84060000     -72.78920000
H      -43.36280000     -30.66000000     -72.42800000
H      -43.21230000     -32.36540000     -74.19610000
C      -45.78810000     -29.35730000     -71.59030000
H      -46.71650000     -28.82260000     -71.86660000
H      -44.89190000     -28.68640000     -71.48880000
C      -47.86750000     -32.85330000     -74.65140000
H      -48.62620000     -32.08580000     -74.85270000
H      -47.59380000     -33.12130000     -75.62790000
S      -46.16920000     -30.02150000     -69.78270000
S      -48.48330000     -34.19900000     -73.59670000
C      -45.06910000     -31.41670000     -69.42550000
H      -44.48750000     -31.70300000     -70.35580000
H      -44.28090000     -31.21170000     -68.66220000
C      -47.07650000     -35.18090000     -73.04830000
H      -46.48420000     -35.38770000     -73.95860000
H      -47.41560000     -36.13660000     -72.70580000
C      -46.32770000     -34.47310000     -71.91930000
H      -46.02760000     -33.41400000     -72.11020000
H      -47.07210000     -34.23600000     -71.11710000
C      -45.84660000     -32.69250000     -69.03140000
H      -46.51030000     -32.96040000     -69.87010000
H      -46.52250000     -32.66830000     -68.10850000
C      -44.76370000     -33.81990000     -68.91530000
C      -43.81940000     -33.76520000     -67.91670000
C      -44.61120000     -34.82610000     -69.93230000
H      -43.72410000     -33.13790000     -67.07500000
C      -43.45140000     -35.62620000     -69.60850000
C      -45.20920000     -35.25120000     -71.22600000
C      -44.43200000     -36.29430000     -71.74030000
S      -42.67700000     -35.09580000     -68.18010000
S      -43.16470000     -36.89480000     -70.69150000
H      -44.65360000     -36.87900000     -72.63340000
