40
Properties=species:S:1:pos:R:3 #=T CELL(abcABC):=T 1.889726e+02=T 90.00000=T Traj:=T positionsangstrom=T Step:=T 0=T Bead:=T pbc="F F F"
C      -45.49750000     -32.02320000     -75.02760000
C      -46.52860000     -31.93840000     -74.13670000
C      -46.36380000     -31.16150000     -72.94710000
C      -45.16170000     -30.52410000     -72.66850000
C      -44.17410000     -30.51650000     -73.66980000
C      -44.28910000     -31.30960000     -74.77850000
H      -45.61600000     -32.67520000     -75.93580000
H      -47.26840000     -31.17650000     -72.29190000
H      -43.18390000     -30.04580000     -73.55550000
H      -43.51160000     -31.26530000     -75.57670000
C      -44.97910000     -29.70020000     -71.37270000
H      -45.22970000     -28.60940000     -71.61830000
H      -43.94070000     -29.70770000     -70.99920000
C      -47.82050000     -32.69520000     -74.47690000
H      -48.58150000     -31.92900000     -74.86470000
H      -47.65650000     -33.44720000     -75.32350000
S      -46.01690000     -30.22640000     -69.93600000
S      -48.59030000     -33.59540000     -73.05120000
C      -44.90300000     -31.66450000     -69.76630000
H      -44.67580000     -32.07270000     -70.82210000
H      -43.89020000     -31.41750000     -69.35750000
C      -47.24560000     -34.76500000     -72.76070000
H      -46.66250000     -34.85930000     -73.64010000
H      -47.76670000     -35.73440000     -72.56530000
C      -46.35530000     -34.24610000     -71.56180000
H      -46.12710000     -33.19960000     -71.75060000
H      -47.05430000     -34.31970000     -70.70590000
C      -45.53930000     -32.74560000     -68.84100000
H      -46.46750000     -33.02190000     -69.28600000
H      -45.69640000     -32.30120000     -67.85380000
C      -44.66540000     -33.94590000     -68.87450000
C      -43.90230000     -34.25810000     -67.82700000
C      -44.49150000     -34.92340000     -69.94240000
H      -43.73640000     -33.55420000     -67.03640000
C      -43.60590000     -35.88040000     -69.65540000
C      -45.22850000     -35.16690000     -71.18140000
C      -44.86200000     -36.36260000     -71.71350000
S      -42.81410000     -35.63530000     -68.10640000
S      -43.55990000     -37.16950000     -70.78470000
H      -45.32880000     -36.83380000     -72.55150000
