40
Properties=species:S:1:pos:R:3 #=T CELL(abcABC):=T 1.889726e+02=T 90.00000=T Traj:=T positionsangstrom=T Step:=T 0=T Bead:=T pbc="F F F"
C      -46.37380000     -35.71280000     -74.50600000
C      -45.21840000     -35.92000000     -73.79590000
C      -44.16830000     -34.95230000     -73.83400000
C      -44.37280000     -33.69520000     -74.41710000
C      -45.58330000     -33.43830000     -75.06680000
C      -46.53350000     -34.48500000     -75.18710000
H      -47.05470000     -36.62790000     -74.61330000
H      -43.25660000     -35.19090000     -73.30390000
H      -45.74590000     -32.48260000     -75.55760000
H      -47.45620000     -34.35410000     -75.76090000
C      -43.39720000     -32.54480000     -74.35090000
H      -43.54110000     -31.72140000     -75.06450000
H      -42.30640000     -32.80920000     -74.55370000
C      -44.99260000     -37.20220000     -73.04450000
H      -45.09710000     -38.02850000     -73.73020000
H      -43.97700000     -37.30510000     -72.62030000
S      -43.51290000     -31.89320000     -72.59730000
S      -46.12560000     -37.43800000     -71.66770000
C      -45.04020000     -30.77230000     -72.74520000
H      -44.81650000     -29.87890000     -72.14080000
H      -45.18180000     -30.54560000     -73.84070000
C      -45.78060000     -36.05070000     -70.45060000
H      -44.76630000     -36.18680000     -70.11340000
H      -46.40770000     -36.24670000     -69.57120000
C      -45.89770000     -34.55430000     -70.72760000
H      -45.10940000     -34.40910000     -71.47130000
H      -46.87800000     -34.32430000     -71.17060000
C      -46.21470000     -31.39690000     -71.99760000
H      -46.52130000     -32.36480000     -72.35080000
H      -47.12320000     -30.76300000     -72.21430000
C      -46.00600000     -31.24000000     -70.53450000
C      -46.07770000     -29.96670000     -70.01770000
C      -45.66380000     -32.24640000     -69.52120000
H      -46.11960000     -29.06490000     -70.71060000
C      -45.48810000     -31.74240000     -68.26700000
C      -45.50180000     -33.71040000     -69.55870000
C      -45.05090000     -34.13770000     -68.36210000
S      -45.77370000     -30.02090000     -68.21060000
S      -45.11070000     -32.88100000     -67.10920000
H      -44.78380000     -35.17760000     -68.15350000
