40
Properties=species:S:1:pos:R:3 #=T CELL(abcABC):=T 1.889726e+02=T 90.00000=T Traj:=T positionsangstrom=T Step:=T 0=T Bead:=T pbc="F F F"
C      -41.47650000     -33.49110000     -71.97080000
C      -42.30480000     -33.33300000     -73.09460000
C      -42.95810000     -32.11700000     -73.25620000
C      -43.00120000     -31.20240000     -72.20410000
C      -42.18280000     -31.37950000     -71.08010000
C      -41.38000000     -32.46310000     -71.03770000
H      -40.81680000     -34.35370000     -71.85770000
H      -43.71110000     -32.11150000     -74.04640000
H      -42.16360000     -30.59630000     -70.28030000
H      -40.73450000     -32.58430000     -70.17370000
C      -43.88210000     -29.96630000     -72.17670000
H      -44.01440000     -29.48930000     -73.18040000
H      -43.40410000     -29.14800000     -71.61220000
C      -42.46770000     -34.40090000     -74.22240000
H      -42.31350000     -33.95470000     -75.14820000
H      -41.71260000     -35.16150000     -74.09490000
S      -45.62400000     -30.21660000     -71.50020000
S      -44.21920000     -35.13730000     -74.35920000
C      -45.92820000     -31.84350000     -72.19360000
H      -45.71040000     -31.86190000     -73.24260000
H      -45.28200000     -32.57960000     -71.72480000
C      -44.64240000     -35.33930000     -72.58080000
H      -44.21140000     -34.41900000     -72.15960000
H      -44.12560000     -36.21150000     -72.14510000
C      -46.21230000     -35.41020000     -72.50330000
H      -46.75670000     -34.77720000     -73.25060000
H      -46.52360000     -36.37850000     -72.79170000
C      -47.41880000     -32.21400000     -71.96720000
H      -47.82280000     -32.90070000     -72.73780000
H      -48.02380000     -31.33560000     -72.19340000
C      -47.55850000     -32.79120000     -70.65430000
C      -48.06760000     -32.13640000     -69.56200000
C      -47.13810000     -34.15620000     -70.31790000
H      -48.37260000     -31.11150000     -69.40260000
C      -47.43760000     -34.51410000     -68.98690000
C      -46.56020000     -35.27820000     -71.02760000
C      -46.42370000     -36.37330000     -70.19090000
S      -48.12160000     -33.12320000     -68.12460000
S      -46.87730000     -36.11440000     -68.55880000
H      -46.01620000     -37.33960000     -70.46750000
