40
Properties=species:S:1:pos:R:3 #=T CELL(abcABC):=T 1.889726e+02=T 90.00000=T Traj:=T positionsangstrom=T Step:=T 0=T Bead:=T pbc="F F F"
C      -41.63670000     -33.50590000     -71.97140000
C      -42.45080000     -33.22360000     -73.08010000
C      -43.18780000     -32.03340000     -72.98840000
C      -43.14710000     -31.17770000     -71.88510000
C      -42.33840000     -31.43470000     -70.81310000
C      -41.56520000     -32.60550000     -70.90350000
H      -40.94130000     -34.40510000     -72.07300000
H      -43.93010000     -31.81800000     -73.78180000
H      -42.20660000     -30.74760000     -70.04080000
H      -40.94760000     -32.88520000     -70.07660000
C      -44.00820000     -30.01990000     -71.97040000
H      -43.87280000     -29.57010000     -72.95690000
H      -43.67670000     -29.23420000     -71.26760000
C      -42.49220000     -34.22760000     -74.17700000
H      -42.16720000     -33.91300000     -75.15530000
H      -41.80460000     -35.04750000     -74.01960000
S      -45.82890000     -30.34780000     -71.56350000
S      -44.14230000     -34.96740000     -74.41630000
C      -46.50970000     -31.57590000     -72.69750000
H      -46.87870000     -31.16330000     -73.70180000
H      -45.67790000     -32.25110000     -72.85650000
C      -44.65460000     -35.11210000     -72.70130000
H      -44.33620000     -34.22370000     -72.15990000
H      -44.23460000     -35.94090000     -72.18170000
C      -46.17900000     -35.22280000     -72.58540000
H      -46.70680000     -34.35040000     -73.03490000
H      -46.54240000     -36.07310000     -73.24970000
C      -47.72240000     -32.33160000     -72.09110000
H      -48.15580000     -33.08020000     -72.75140000
H      -48.54070000     -31.58380000     -71.89600000
C      -47.51770000     -32.92260000     -70.68850000
C      -47.94550000     -32.32680000     -69.54890000
C      -47.08110000     -34.28100000     -70.33360000
H      -48.12020000     -31.23110000     -69.51810000
C      -47.11240000     -34.53650000     -68.96310000
C      -46.53370000     -35.42510000     -71.10900000
C      -46.24980000     -36.49510000     -70.29100000
S      -47.70650000     -33.16490000     -68.04690000
S      -46.59300000     -36.13630000     -68.58170000
H      -45.76160000     -37.42570000     -70.42650000
