40
Properties=species:S:1:pos:R:3 #=T CELL(abcABC):=T 1.889726e+02=T 90.00000=T Traj:=T positionsangstrom=T Step:=T 0=T Bead:=T pbc="F F F"
C      -41.57600000     -33.55300000     -71.89090000
C      -42.19850000     -33.30470000     -73.18240000
C      -42.98470000     -32.14910000     -73.26820000
C      -43.12040000     -31.30680000     -72.13050000
C      -42.49720000     -31.58150000     -70.93290000
C      -41.64560000     -32.65380000     -70.82960000
H      -41.08900000     -34.44390000     -71.81070000
H      -43.35980000     -31.88170000     -74.24750000
H      -42.59940000     -30.84750000     -70.10150000
H      -41.14350000     -32.87070000     -69.86760000
C      -44.08410000     -30.12740000     -72.08520000
H      -44.41050000     -29.67970000     -73.00240000
H      -43.64630000     -29.43380000     -71.41390000
C      -42.22710000     -34.35410000     -74.25540000
H      -41.97650000     -33.86540000     -75.22850000
H      -41.46530000     -35.22090000     -74.07710000
S      -45.63320000     -30.61290000     -71.22880000
S      -43.99310000     -34.96800000     -74.37120000
C      -46.43880000     -31.57070000     -72.59300000
H      -46.61420000     -31.00180000     -73.58020000
H      -45.59480000     -32.33980000     -72.87030000
C      -44.51540000     -35.11600000     -72.56750000
H      -44.19790000     -34.25770000     -71.95440000
H      -44.02090000     -35.99440000     -72.12290000
C      -46.06510000     -35.17280000     -72.50350000
H      -46.47600000     -34.25070000     -73.02250000
H      -46.32980000     -36.08530000     -73.05050000
C      -47.73710000     -32.19260000     -72.10980000
H      -48.16920000     -32.92230000     -72.84740000
H      -48.40010000     -31.35220000     -72.04850000
C      -47.72960000     -32.82960000     -70.72860000
C      -48.09460000     -32.08270000     -69.63180000
C      -47.23420000     -34.18990000     -70.38160000
H      -48.66230000     -31.17320000     -69.59270000
C      -47.26040000     -34.44290000     -68.98610000
C      -46.59440000     -35.32320000     -71.09190000
C      -46.45900000     -36.43320000     -70.32320000
S      -47.71240000     -32.95170000     -68.12460000
S      -46.89220000     -36.10810000     -68.61430000
H      -46.07090000     -37.42920000     -70.62080000
