40
Properties=species:S:1:pos:R:3 #=T CELL(abcABC):=T 1.889726e+02=T 90.00000=T Traj:=T positionsangstrom=T Step:=T 0=T Bead:=T pbc="F F F"
C      -41.52450000     -33.51240000     -72.02130000
C      -42.28060000     -33.28700000     -73.21860000
C      -43.05030000     -32.10010000     -73.28450000
C      -42.92910000     -31.14580000     -72.29760000
C      -42.26100000     -31.39600000     -71.13140000
C      -41.50520000     -32.59630000     -70.96860000
H      -41.11920000     -34.43820000     -71.74400000
H      -43.49460000     -31.80720000     -74.28960000
H      -42.28950000     -30.67720000     -70.25350000
H      -41.01300000     -32.76770000     -69.97580000
C      -43.75700000     -29.90350000     -72.36430000
H      -43.86630000     -29.55480000     -73.34180000
H      -43.25860000     -29.10630000     -71.72600000
C      -42.42860000     -34.30100000     -74.25990000
H      -42.28580000     -34.03320000     -75.37540000
H      -41.71770000     -35.07350000     -73.98110000
S      -45.41550000     -30.25730000     -71.58220000
S      -44.13780000     -34.94660000     -74.29420000
C      -46.08770000     -31.84900000     -72.41670000
H      -46.16290000     -31.68920000     -73.54610000
H      -45.26440000     -32.58580000     -72.28120000
C      -44.59890000     -35.31580000     -72.58650000
H      -44.17240000     -34.44570000     -71.99860000
H      -44.13620000     -36.21300000     -72.14690000
C      -46.18850000     -35.28730000     -72.41040000
H      -46.48490000     -34.51080000     -73.03180000
H      -46.50630000     -36.25230000     -72.87280000
C      -47.52190000     -32.33160000     -71.99070000
H      -47.91260000     -32.98770000     -72.69950000
H      -48.16420000     -31.38750000     -71.80720000
C      -47.57840000     -32.90060000     -70.60430000
C      -48.07350000     -32.17890000     -69.55630000
C      -47.23380000     -34.25290000     -70.26200000
H      -48.59080000     -31.25520000     -69.52680000
C      -47.41080000     -34.51870000     -68.93710000
C      -46.56740000     -35.33040000     -70.91120000
C      -46.40790000     -36.43930000     -70.12400000
S      -48.14330000     -33.18430000     -68.06010000
S      -46.99140000     -36.12160000     -68.47530000
H      -45.83380000     -37.30550000     -70.28800000
