40
Properties=species:S:1:pos:R:3 #=T CELL(abcABC):=T 1.889726e+02=T 90.00000=T Traj:=T positionsangstrom=T Step:=T 0=T Bead:=T pbc="F F F"
C      -45.96660000     -33.10870000     -74.56150000
C      -47.17050000     -32.73090000     -73.93550000
C      -47.22920000     -31.47190000     -73.18820000
C      -45.99510000     -30.72170000     -73.08630000
C      -44.91810000     -31.06920000     -73.86460000
C      -44.86230000     -32.28940000     -74.51740000
H      -45.96220000     -34.01250000     -75.07430000
H      -48.18320000     -31.12110000     -72.75040000
H      -44.12400000     -30.35210000     -74.02500000
H      -43.97950000     -32.59570000     -74.95740000
C      -46.01880000     -29.45160000     -72.27060000
H      -46.73110000     -28.75140000     -72.63170000
H      -45.05020000     -28.93730000     -72.25310000
C      -48.42640000     -33.52960000     -74.03990000
H      -49.27120000     -32.77780000     -74.20320000
H      -48.39730000     -34.13540000     -74.98440000
S      -46.36340000     -29.85550000     -70.49690000
S      -48.75550000     -34.59060000     -72.54340000
C      -45.06780000     -31.22740000     -70.26630000
H      -45.23930000     -31.90650000     -71.10650000
H      -44.06590000     -30.66620000     -70.22780000
C      -47.12770000     -35.44860000     -72.25100000
H      -46.56690000     -35.54290000     -73.17220000
H      -47.40540000     -36.49330000     -72.00510000
C      -46.44260000     -34.72720000     -71.12000000
H      -46.29750000     -33.65650000     -71.45680000
H      -47.20300000     -34.68040000     -70.22830000
C      -45.21760000     -32.17750000     -68.98540000
H      -46.25820000     -32.58370000     -68.94690000
H      -45.14310000     -31.60240000     -68.10990000
C      -44.07370000     -33.30380000     -69.06770000
C      -42.93040000     -33.14670000     -68.37270000
C      -44.09800000     -34.59120000     -69.77540000
H      -42.50080000     -32.35930000     -67.86300000
C      -42.92860000     -35.32230000     -69.61290000
C      -45.07390000     -35.28410000     -70.63550000
C      -44.58740000     -36.45390000     -71.10160000
S      -41.84410000     -34.47660000     -68.55840000
S      -42.91150000     -36.77300000     -70.48340000
H      -45.17340000     -37.05520000     -71.80830000
