40
Properties=species:S:1:pos:R:3 #=T CELL(abcABC):=T 1.889726e+02=T 90.00000=T Traj:=T positionsangstrom=T Step:=T 0=T Bead:=T pbc="F F F"
C      -45.46130000     -32.74710000     -74.70350000
C      -46.69860000     -32.38300000     -74.17940000
C      -46.69050000     -31.30150000     -73.31530000
C      -45.58950000     -30.48860000     -73.01280000
C      -44.35940000     -30.86260000     -73.62070000
C      -44.30710000     -31.95730000     -74.49810000
H      -45.41010000     -33.55820000     -75.37080000
H      -47.62340000     -31.04090000     -72.83800000
H      -43.47810000     -30.27490000     -73.40620000
H      -43.36920000     -32.36880000     -74.90650000
C      -45.80530000     -29.42730000     -71.94210000
H      -46.76570000     -28.91230000     -72.12750000
H      -44.94780000     -28.75750000     -71.96270000
C      -47.92900000     -33.15350000     -74.50260000
H      -48.75320000     -32.52950000     -74.87140000
H      -47.73490000     -34.00790000     -75.16920000
S      -46.13410000     -30.14050000     -70.31190000
S      -48.55130000     -33.91240000     -72.96740000
C      -44.84010000     -31.46480000     -70.08400000
H      -44.67520000     -31.98230000     -71.05190000
H      -43.88820000     -30.90240000     -69.74880000
C      -47.08300000     -35.01060000     -72.55900000
H      -46.53320000     -35.27960000     -73.47350000
H      -47.53620000     -35.92710000     -72.14670000
C      -46.31240000     -34.30390000     -71.48840000
H      -46.05770000     -33.26710000     -71.68640000
H      -47.04940000     -34.23990000     -70.73220000
C      -45.33300000     -32.43480000     -69.00300000
H      -46.38770000     -32.67560000     -69.26960000
H      -45.37140000     -31.93200000     -68.01050000
C      -44.42650000     -33.56100000     -68.88880000
C      -43.56990000     -33.70660000     -67.86500000
C      -44.31600000     -34.63060000     -69.92030000
H      -43.64280000     -33.19230000     -66.95360000
C      -43.37450000     -35.59080000     -69.53390000
C      -45.12010000     -35.10440000     -71.02700000
C      -44.71670000     -36.31420000     -71.50540000
S      -42.68760000     -35.26280000     -67.93430000
S      -43.42820000     -37.03250000     -70.48720000
H      -45.08610000     -36.84790000     -72.32720000
