40
Properties=species:S:1:pos:R:3 #=T CELL(abcABC):=T 1.889726e+02=T 90.00000=T Traj:=T positionsangstrom=T Step:=T 0=T Bead:=T pbc="F F F"
C      -45.47420000     -32.49630000     -74.91560000
C      -46.65060000     -32.20870000     -74.21350000
C      -46.58930000     -31.17380000     -73.33460000
C      -45.44910000     -30.43360000     -73.02030000
C      -44.29330000     -30.78360000     -73.71120000
C      -44.29950000     -31.80480000     -74.64750000
H      -45.50440000     -33.30400000     -75.72060000
H      -47.48420000     -31.00440000     -72.75040000
H      -43.38090000     -30.33030000     -73.47200000
H      -43.38850000     -32.00430000     -75.21320000
C      -45.36090000     -29.40510000     -71.95390000
H      -46.01820000     -28.54800000     -72.12920000
H      -44.30990000     -29.10290000     -71.89100000
C      -47.94230000     -33.03110000     -74.51270000
H      -48.74670000     -32.42450000     -74.87420000
H      -47.67370000     -33.68630000     -75.38160000
S      -46.20420000     -30.13440000     -70.40890000
S      -48.61730000     -33.93760000     -73.04470000
C      -44.95520000     -31.45420000     -69.91650000
H      -44.56310000     -31.99830000     -70.77180000
H      -44.14390000     -30.86980000     -69.60060000
C      -47.25100000     -34.99860000     -72.59420000
H      -46.52910000     -35.17620000     -73.42760000
H      -47.67410000     -35.93200000     -72.25560000
C      -46.36730000     -34.35960000     -71.49600000
H      -45.88250000     -33.53790000     -72.11220000
H      -46.94350000     -34.02010000     -70.62970000
C      -45.41120000     -32.46980000     -68.86520000
H      -46.42150000     -32.82110000     -69.05140000
H      -45.39450000     -31.99880000     -67.88380000
C      -44.48300000     -33.69370000     -68.75560000
C      -43.55600000     -33.82140000     -67.76980000
C      -44.50370000     -34.87710000     -69.65420000
H      -43.43070000     -33.22200000     -66.91110000
C      -43.51050000     -35.80100000     -69.35670000
C      -45.21160000     -35.22490000     -70.88430000
C      -44.68420000     -36.31360000     -71.50220000
S      -42.60300000     -35.25810000     -67.88760000
S      -43.41120000     -37.07930000     -70.55080000
H      -45.00940000     -36.86180000     -72.39350000
