40
Properties=species:S:1:pos:R:3 #=T CELL(abcABC):=T 1.889726e+02=T 90.00000=T Traj:=T positionsangstrom=T Step:=T 0=T Bead:=T pbc="F F F"
C      -45.63350000     -32.70540000     -74.82610000
C      -46.87630000     -32.37890000     -74.34630000
C      -46.92350000     -31.26380000     -73.45950000
C      -45.79490000     -30.60370000     -72.96850000
C      -44.54190000     -30.99420000     -73.42680000
C      -44.52020000     -31.98400000     -74.41290000
H      -45.54970000     -33.56080000     -75.42680000
H      -47.93550000     -30.96100000     -73.19500000
H      -43.64040000     -30.58590000     -72.93800000
H      -43.57060000     -32.28540000     -74.79750000
C      -45.91020000     -29.40800000     -72.03620000
H      -46.73390000     -28.73950000     -72.29640000
H      -45.08270000     -28.71020000     -72.07600000
C      -48.08430000     -33.24440000     -74.60180000
H      -48.95450000     -32.62240000     -75.01910000
H      -47.78880000     -33.98010000     -75.32850000
S      -46.05480000     -29.87020000     -70.21760000
S      -48.67160000     -34.16020000     -73.09900000
C      -44.85320000     -31.27950000     -70.11470000
H      -45.00400000     -31.84330000     -71.01200000
H      -43.83460000     -30.95700000     -70.03280000
C      -47.22480000     -35.03740000     -72.40480000
H      -46.74110000     -35.34610000     -73.34210000
H      -47.55800000     -35.95020000     -71.85450000
C      -46.22560000     -34.27450000     -71.52790000
H      -45.80300000     -33.48110000     -72.12910000
H      -46.69960000     -33.71510000     -70.65620000
C      -45.18970000     -32.28680000     -68.94360000
H      -46.18890000     -32.67240000     -69.07890000
H      -45.25580000     -31.77420000     -67.96350000
C      -44.29600000     -33.57280000     -68.85070000
C      -43.37950000     -33.79540000     -67.87320000
C      -44.38900000     -34.75490000     -69.72510000
H      -43.10670000     -33.04940000     -67.11070000
C      -43.35240000     -35.65920000     -69.40940000
C      -45.08860000     -35.13460000     -70.89080000
C      -44.63050000     -36.28540000     -71.46970000
S      -42.42900000     -35.25640000     -67.97800000
S      -43.27510000     -37.00080000     -70.52490000
H      -44.96430000     -36.76250000     -72.32590000
