40
Properties=species:S:1:pos:R:3 #=T CELL(abcABC):=T 1.889726e+02=T 90.00000=T Traj:=T positionsangstrom=T Step:=T 0=T Bead:=T pbc="F F F"
C      -41.58990000     -33.12520000     -72.59420000
C      -42.59230000     -33.05890000     -73.50920000
C      -43.45400000     -31.91220000     -73.47060000
C      -43.17570000     -30.84490000     -72.54410000
C      -42.04670000     -30.91980000     -71.71550000
C      -41.29460000     -32.11310000     -71.70060000
H      -41.04040000     -34.12900000     -72.59210000
H      -44.20760000     -31.86640000     -74.23870000
H      -41.97740000     -30.09540000     -71.00210000
H      -40.48020000     -32.34830000     -71.02260000
C      -44.08640000     -29.59960000     -72.61000000
H      -44.28070000     -29.48290000     -73.66080000
H      -43.50690000     -28.77800000     -72.18410000
C      -42.84700000     -34.18180000     -74.45540000
H      -42.38680000     -33.89000000     -75.35250000
H      -42.23080000     -35.02340000     -74.13350000
S      -45.67500000     -29.79620000     -71.84420000
S      -44.59170000     -34.72560000     -74.64880000
C      -45.84250000     -31.59980000     -71.32200000
H      -45.46850000     -32.14140000     -72.16620000
H      -45.18880000     -31.77490000     -70.44100000
C      -44.90180000     -35.12850000     -72.85720000
H      -44.31950000     -34.38400000     -72.19480000
H      -44.54230000     -36.18640000     -72.67760000
C      -46.38690000     -35.08800000     -72.49600000
H      -46.98710000     -34.15770000     -72.74860000
H      -46.91860000     -35.88720000     -72.99450000
C      -47.25140000     -31.92760000     -70.89860000
H      -47.79770000     -32.15870000     -71.79530000
H      -47.72980000     -30.98560000     -70.56220000
C      -47.30440000     -33.00560000     -69.84850000
C      -47.72160000     -32.73620000     -68.56550000
C      -46.81060000     -34.36710000     -69.95320000
H      -48.05970000     -31.79530000     -68.16910000
C      -46.91780000     -35.04100000     -68.71330000
C      -46.54580000     -35.34330000     -71.01290000
C      -46.36100000     -36.62610000     -70.51230000
S      -47.69260000     -34.08180000     -67.42220000
S      -46.79750000     -36.77340000     -68.76870000
H      -46.23550000     -37.58000000     -71.04240000
