40
Properties=species:S:1:pos:R:3 #=T CELL(abcABC):=T 1.889726e+02=T 90.00000=T Traj:=T positionsangstrom=T Step:=T 0=T Bead:=T pbc="F F F"
C      -41.46030000     -32.48510000     -73.43280000
C      -42.73930000     -32.54430000     -73.91720000
C      -43.62070000     -31.51260000     -73.74640000
C      -43.30730000     -30.54620000     -72.77440000
C      -42.03230000     -30.51040000     -72.16840000
C      -41.10790000     -31.44180000     -72.55420000
H      -40.71720000     -33.23610000     -73.63160000
H      -44.56230000     -31.48440000     -74.18090000
H      -41.79020000     -29.78530000     -71.42910000
H      -40.09450000     -31.44530000     -72.11900000
C      -44.32580000     -29.46920000     -72.27960000
H      -44.58670000     -28.67090000     -73.05900000
H      -43.89730000     -29.03830000     -71.39590000
C      -43.06620000     -33.75450000     -74.78530000
H      -43.02510000     -33.56710000     -75.82360000
H      -42.35570000     -34.62960000     -74.71730000
S      -46.06480000     -30.00550000     -71.90510000
S      -44.84800000     -34.40210000     -74.54610000
C      -45.90840000     -31.39930000     -70.73890000
H      -44.97890000     -31.99690000     -70.95570000
H      -45.80790000     -30.97590000     -69.79750000
C      -45.13780000     -34.63600000     -72.73500000
H      -45.14540000     -33.67550000     -72.30580000
H      -44.28600000     -35.10700000     -72.31290000
C      -46.45490000     -35.40260000     -72.32730000
H      -47.42910000     -34.98310000     -72.55670000
H      -46.48010000     -36.34110000     -72.85070000
C      -47.15370000     -32.32380000     -70.75750000
H      -47.14150000     -32.94950000     -71.68930000
H      -48.11930000     -31.80290000     -70.70660000
C      -47.08820000     -33.43150000     -69.65940000
C      -47.17230000     -33.02170000     -68.31910000
C      -46.86340000     -34.82090000     -69.82400000
H      -47.49890000     -32.06220000     -67.91200000
C      -46.83520000     -35.43390000     -68.55850000
C      -46.64250000     -35.73000000     -70.88480000
C      -46.51050000     -37.05440000     -70.40500000
S      -47.08180000     -34.31770000     -67.17390000
S      -46.61360000     -37.15930000     -68.66550000
H      -46.64320000     -37.87770000     -71.07390000
