40
Properties=species:S:1:pos:R:3 #=T CELL(abcABC):=T 1.889726e+02=T 90.00000=T Traj:=T positionsangstrom=T Step:=T 0=T Bead:=T pbc="F F F"
C      -41.56400000     -32.44230000     -73.40940000
C      -42.90730000     -32.66790000     -73.75310000
C      -43.83790000     -31.69830000     -73.36850000
C      -43.49230000     -30.55070000     -72.68800000
C      -42.11100000     -30.36300000     -72.31180000
C      -41.15440000     -31.23050000     -72.80960000
H      -40.83330000     -33.19610000     -73.69500000
H      -44.81720000     -31.85250000     -73.67920000
H      -41.77890000     -29.42730000     -71.74950000
H      -40.15120000     -31.09240000     -72.51230000
C      -44.46420000     -29.45950000     -72.38830000
H      -44.54200000     -28.90220000     -73.34830000
H      -44.07170000     -28.82280000     -71.59790000
C      -43.23240000     -33.87380000     -74.57960000
H      -43.10770000     -33.49010000     -75.60870000
H      -42.54220000     -34.66130000     -74.36760000
S      -46.13810000     -30.00820000     -71.87960000
S      -44.94170000     -34.37960000     -74.43240000
C      -45.99000000     -31.23680000     -70.49570000
H      -44.96940000     -31.68210000     -70.49530000
H      -46.00370000     -30.78100000     -69.48930000
C      -45.00380000     -34.86190000     -72.63720000
H      -44.71780000     -33.98540000     -71.96330000
H      -44.37890000     -35.79450000     -72.41140000
C      -46.46550000     -35.22420000     -72.38380000
H      -47.11770000     -34.33620000     -72.58220000
H      -46.78050000     -36.00760000     -73.11890000
C      -47.06440000     -32.28950000     -70.74270000
H      -46.89520000     -32.69820000     -71.72640000
H      -47.99810000     -31.74100000     -70.83250000
C      -47.06760000     -33.39340000     -69.70580000
C      -47.12010000     -32.98420000     -68.36640000
C      -46.83040000     -34.86960000     -69.83010000
H      -47.18860000     -32.05070000     -67.85750000
C      -46.69980000     -35.51400000     -68.58140000
C      -46.56540000     -35.72170000     -70.99860000
C      -46.36060000     -37.02600000     -70.59220000
S      -46.94620000     -34.42940000     -67.29730000
S      -46.41610000     -37.15180000     -68.77380000
H      -45.93780000     -37.74420000     -71.22630000
