40
Properties=species:S:1:pos:R:3 #=T CELL(abcABC):=T 1.889726e+02=T 90.00000=T Traj:=T positionsangstrom=T Step:=T 0=T Bead:=T pbc="F F F"
C      -41.82940000     -32.17020000     -73.30520000
C      -43.03970000     -32.42350000     -73.93780000
C      -44.08100000     -31.45590000     -73.71710000
C      -43.92050000     -30.37630000     -72.83810000
C      -42.70690000     -30.25710000     -72.11230000
C      -41.65860000     -31.10010000     -72.38010000
H      -40.95410000     -32.84890000     -73.29500000
H      -45.03480000     -31.50910000     -74.20670000
H      -42.55720000     -29.50330000     -71.34520000
H      -40.74150000     -31.03400000     -71.81860000
C      -45.08660000     -29.46540000     -72.52780000
H      -45.32120000     -28.72780000     -73.33160000
H      -45.06220000     -28.91410000     -71.57920000
C      -43.26500000     -33.55600000     -74.89100000
H      -43.22500000     -33.26440000     -75.92070000
H      -42.51070000     -34.26430000     -74.63340000
S      -46.69000000     -30.36150000     -72.31340000
S      -44.85370000     -34.48320000     -74.71220000
C      -46.15130000     -31.56390000     -70.87360000
H      -45.44130000     -32.32720000     -71.20620000
H      -45.53560000     -30.96160000     -70.16520000
C      -44.76850000     -34.80740000     -72.95330000
H      -44.44380000     -33.86750000     -72.47920000
H      -44.00790000     -35.58340000     -72.65370000
C      -46.17760000     -35.10540000     -72.34520000
H      -46.81260000     -34.20120000     -72.41450000
H      -46.78370000     -35.80600000     -72.99090000
C      -47.33890000     -32.30050000     -70.26780000
H      -47.93560000     -32.79270000     -71.09880000
H      -47.97650000     -31.57250000     -69.76770000
C      -46.99820000     -33.41460000     -69.26460000
C      -47.20640000     -33.24350000     -67.88660000
C      -46.48110000     -34.73080000     -69.63780000
H      -47.54890000     -32.34770000     -67.37840000
C      -46.27630000     -35.46580000     -68.46900000
C      -46.14460000     -35.56100000     -70.89540000
C      -45.74710000     -36.81760000     -70.51610000
S      -46.66990000     -34.69990000     -66.97740000
S      -45.76430000     -37.05900000     -68.71160000
H      -45.42510000     -37.52640000     -71.24610000
