40
Properties=species:S:1:pos:R:3 #=T CELL(abcABC):=T 1.889726e+02=T 90.00000=T Traj:=T positionsangstrom=T Step:=T 0=T Bead:=T pbc="F F F"
C      -41.84170000     -32.18080000     -73.35630000
C      -43.06920000     -32.40280000     -73.96200000
C      -44.24610000     -31.59620000     -73.73970000
C      -44.15270000     -30.45420000     -72.94870000
C      -42.92700000     -30.18520000     -72.34130000
C      -41.78870000     -31.00440000     -72.56950000
H      -41.00340000     -32.78660000     -73.58250000
H      -45.17210000     -32.07980000     -74.12930000
H      -42.96130000     -29.31800000     -71.63430000
H      -40.80990000     -30.76800000     -72.17740000
C      -45.38780000     -29.58850000     -72.67600000
H      -45.72330000     -28.92130000     -73.48360000
H      -45.22730000     -28.83080000     -71.91610000
C      -43.28660000     -33.56070000     -75.03130000
H      -43.34690000     -33.13090000     -76.04090000
H      -42.39190000     -34.19610000     -75.10180000
S      -46.93250000     -30.56600000     -72.34080000
S      -44.76910000     -34.66680000     -74.71150000
C      -46.43750000     -31.50680000     -70.86500000
H      -45.46850000     -31.99850000     -71.06460000
H      -46.19840000     -30.73340000     -70.06720000
C      -44.52860000     -34.82050000     -72.85480000
H      -44.09750000     -33.89090000     -72.41720000
H      -43.76170000     -35.55260000     -72.56680000
C      -45.88980000     -35.09090000     -72.19710000
H      -46.49370000     -34.18110000     -72.40910000
H      -46.42170000     -35.87780000     -72.78560000
C      -47.50340000     -32.41240000     -70.32420000
H      -47.75940000     -33.08850000     -71.12560000
H      -48.31690000     -31.83310000     -69.97700000
C      -46.97760000     -33.35900000     -69.29570000
C      -47.37710000     -33.27680000     -67.99930000
C      -46.29600000     -34.65010000     -69.58490000
H      -47.94290000     -32.45910000     -67.52120000
C      -46.06340000     -35.28610000     -68.38690000
C      -45.92730000     -35.46310000     -70.71000000
C      -45.47300000     -36.65980000     -70.29840000
S      -46.77820000     -34.61040000     -66.98050000
S      -45.36650000     -36.88080000     -68.51610000
H      -44.88250000     -37.34850000     -70.95980000
