40
Properties=species:S:1:pos:R:3 #=T CELL(abcABC):=T 1.889726e+02=T 90.00000=T Traj:=T positionsangstrom=T Step:=T 0=T Bead:=T pbc="F F F"
C      -46.36130000     -32.70740000     -75.06230000
C      -47.29100000     -33.13920000     -74.08280000
C      -47.51330000     -32.33210000     -73.00720000
C      -46.84090000     -31.09520000     -72.83740000
C      -45.90000000     -30.73200000     -73.79740000
C      -45.64670000     -31.57080000     -74.88690000
H      -46.09300000     -33.52910000     -75.71900000
H      -48.32830000     -32.45900000     -72.31950000
H      -45.21460000     -29.93100000     -73.67430000
H      -44.92300000     -31.30450000     -75.65240000
C      -47.14490000     -30.23230000     -71.63380000
H      -47.83680000     -30.74000000     -70.96240000
H      -47.72930000     -29.43000000     -72.02670000
C      -48.07700000     -34.49150000     -74.34960000
H      -48.92820000     -34.23870000     -74.97350000
H      -47.40260000     -35.09290000     -74.97150000
S      -45.82870000     -29.35800000     -70.60310000
S      -48.65140000     -35.40810000     -72.82320000
C      -44.52730000     -30.60840000     -70.17860000
H      -43.92400000     -30.76670000     -71.09530000
H      -43.82630000     -30.07090000     -69.41580000
C      -46.99670000     -35.80310000     -71.91560000
H      -46.38870000     -36.11700000     -72.75250000
H      -47.34600000     -36.70230000     -71.36200000
C      -46.20870000     -34.79410000     -71.16480000
H      -45.85380000     -34.05410000     -71.79030000
H      -46.77700000     -34.29850000     -70.33540000
C      -45.04640000     -31.99440000     -69.66600000
H      -45.82400000     -32.33330000     -70.40520000
H      -45.52720000     -31.79710000     -68.66800000
C      -43.93220000     -32.93800000     -69.47370000
C      -42.67200000     -32.60920000     -68.95470000
C      -44.02600000     -34.36900000     -69.81620000
H      -42.43520000     -31.61690000     -68.65030000
C      -42.84940000     -35.01960000     -69.42990000
C      -44.91180000     -35.34510000     -70.47870000
C      -44.45400000     -36.62740000     -70.48190000
S      -41.57840000     -33.99790000     -68.81870000
S      -42.90900000     -36.71500000     -69.63370000
H      -45.05610000     -37.43820000     -70.76420000
