40
Properties=species:S:1:pos:R:3 #=T CELL(abcABC):=T 1.889726e+02=T 90.00000=T Traj:=T positionsangstrom=T Step:=T 0=T Bead:=T pbc="F F F"
C      -45.28480000     -34.03080000     -67.47790000
C      -46.48550000     -34.00780000     -68.22590000
C      -46.92180000     -32.74880000     -68.66420000
C      -46.11540000     -31.56830000     -68.43000000
C      -44.98820000     -31.66270000     -67.66690000
C      -44.53970000     -32.91350000     -67.26140000
H      -45.02400000     -35.02140000     -67.10580000
H      -47.79160000     -32.76950000     -69.30030000
H      -44.51510000     -30.71660000     -67.36510000
H      -43.60360000     -32.99530000     -66.68320000
C      -46.52790000     -30.25460000     -68.90420000
H      -45.81060000     -29.52390000     -68.54770000
H      -47.51850000     -29.98550000     -68.45620000
C      -47.26690000     -35.29510000     -68.29040000
H      -46.69160000     -36.14000000     -67.87950000
H      -48.17260000     -35.17770000     -67.62680000
S      -46.79440000     -30.23600000     -70.75020000
S      -48.06230000     -35.60460000     -69.92520000
C      -45.34820000     -30.94520000     -71.57020000
H      -44.43420000     -30.30780000     -71.45020000
H      -45.03720000     -31.79960000     -70.94170000
C      -46.70580000     -35.94670000     -71.09660000
H      -47.21750000     -36.58100000     -71.75800000
H      -45.93550000     -36.38640000     -70.44690000
C      -46.19450000     -34.61290000     -71.66830000
H      -46.95890000     -34.08590000     -72.32030000
H      -45.92170000     -33.98380000     -70.87990000
C      -45.60760000     -31.40420000     -73.04500000
H      -45.68600000     -30.41490000     -73.53790000
H      -46.59870000     -31.82930000     -73.06370000
C      -44.53500000     -32.28170000     -73.60500000
C      -43.59560000     -31.82570000     -74.46450000
C      -44.41920000     -33.73740000     -73.36940000
H      -43.50270000     -30.75550000     -74.79680000
C      -43.32710000     -34.17300000     -74.09070000
C      -45.00940000     -34.73490000     -72.55840000
C      -44.28830000     -35.92560000     -72.71410000
S      -42.49830000     -33.07210000     -75.05450000
S      -42.96290000     -35.83810000     -73.91010000
H      -44.63530000     -36.83510000     -72.31720000
