40
Properties=species:S:1:pos:R:3 #=T CELL(abcABC):=T 1.889726e+02=T 90.00000=T Traj:=T positionsangstrom=T Step:=T 0=T Bead:=T pbc="F F F"
C      -43.21160000     -31.86620000     -74.25830000
C      -44.39440000     -32.45110000     -74.68240000
C      -45.63430000     -31.97400000     -74.12600000
C      -45.61020000     -30.89170000     -73.24070000
C      -44.39380000     -30.38980000     -72.81610000
C      -43.17330000     -30.83110000     -73.30300000
H      -42.25930000     -32.18090000     -74.68680000
H      -46.51490000     -32.42480000     -74.61220000
H      -44.48940000     -29.60950000     -72.11880000
H      -42.24620000     -30.52700000     -72.99150000
C      -46.86940000     -30.19180000     -72.74480000
H      -47.32550000     -29.69510000     -73.62920000
H      -46.67640000     -29.32630000     -72.16050000
C      -44.19040000     -33.63800000     -75.59510000
H      -44.78550000     -33.56140000     -76.54760000
H      -43.20130000     -33.83420000     -75.96010000
S      -48.06350000     -31.37160000     -72.05640000
S      -44.69600000     -35.19880000     -74.73490000
C      -47.19140000     -31.97700000     -70.57820000
H      -46.16880000     -32.10420000     -70.88240000
H      -47.35830000     -31.27830000     -69.73850000
C      -44.10960000     -35.13020000     -72.90250000
H      -43.47380000     -34.23890000     -72.96910000
H      -43.63690000     -36.08320000     -72.74920000
C      -45.24680000     -34.85500000     -71.88830000
H      -45.75950000     -33.85880000     -72.18460000
H      -45.99630000     -35.62890000     -72.08270000
C      -47.70720000     -33.36370000     -70.08960000
H      -47.72840000     -34.09970000     -70.86620000
H      -48.72680000     -33.30070000     -69.66440000
C      -46.77060000     -33.86050000     -69.03120000
C      -47.01290000     -33.77110000     -67.67930000
C      -45.49660000     -34.48100000     -69.25360000
H      -47.97570000     -33.41750000     -67.32050000
C      -44.80200000     -34.63260000     -68.10200000
C      -44.69550000     -34.85950000     -70.46500000
C      -43.49290000     -35.35920000     -70.08590000
S      -45.65430000     -34.19780000     -66.65710000
S      -43.33560000     -35.44810000     -68.36870000
H      -42.82050000     -35.75610000     -70.80670000
