40
Properties=species:S:1:pos:R:3 #=T CELL(abcABC):=T 1.889726e+02=T 90.00000=T Traj:=T positionsangstrom=T Step:=T 0=T Bead:=T pbc="F F F"
C      -46.26320000     -33.82360000     -74.96990000
C      -47.31220000     -33.40120000     -74.14310000
C      -47.36460000     -32.06610000     -73.68380000
C      -46.31210000     -31.18740000     -73.94540000
C      -45.23680000     -31.61790000     -74.70360000
C      -45.22500000     -32.87840000     -75.23840000
H      -46.22000000     -34.76930000     -75.47750000
H      -48.23490000     -31.69890000     -73.13950000
H      -44.40230000     -30.86400000     -74.78290000
H      -44.37000000     -33.10970000     -75.91370000
C      -46.33860000     -29.83510000     -73.27400000
H      -47.24430000     -29.33810000     -73.73480000
H      -45.41610000     -29.25130000     -73.44260000
C      -48.42480000     -34.43610000     -73.76010000
H      -49.37610000     -34.14870000     -73.99700000
H      -48.34580000     -35.46680000     -74.20110000
S      -46.69940000     -30.02070000     -71.44740000
S      -48.46740000     -34.64090000     -71.79640000
C      -45.21450000     -31.10690000     -71.11910000
H      -45.03840000     -31.63170000     -72.04330000
H      -44.37940000     -30.46770000     -71.01590000
C      -46.63770000     -34.86140000     -71.49930000
H      -46.08590000     -33.98190000     -71.76650000
H      -46.32830000     -35.64420000     -72.09930000
C      -46.44470000     -35.16250000     -70.04420000
H      -46.95100000     -34.44390000     -69.39690000
H      -46.86170000     -36.07910000     -69.76960000
C      -45.32430000     -32.01300000     -69.88840000
H      -46.12560000     -32.78650000     -69.93660000
H      -45.53480000     -31.37190000     -69.02930000
C      -44.06880000     -32.82720000     -69.68760000
C      -42.79140000     -32.38430000     -69.46460000
C      -43.99510000     -34.25870000     -69.47600000
H      -42.58200000     -31.34840000     -69.48370000
C      -42.78760000     -34.77130000     -69.13370000
C      -44.97680000     -35.30310000     -69.66710000
C      -44.45090000     -36.51340000     -69.34580000
S      -41.60190000     -33.47190000     -68.91580000
S      -42.68770000     -36.52050000     -68.94390000
H      -45.02930000     -37.46890000     -69.20300000
