40
Properties=species:S:1:pos:R:3 #=T CELL(abcABC):=T 1.889726e+02=T 90.00000=T Traj:=T positionsangstrom=T Step:=T 0=T Bead:=T pbc="F F F"
C      -43.91430000     -31.66830000     -74.40910000
C      -44.87020000     -32.72930000     -74.51120000
C      -46.15570000     -32.54550000     -74.08890000
C      -46.51430000     -31.30030000     -73.52640000
C      -45.55550000     -30.28650000     -73.39410000
C      -44.23730000     -30.45630000     -73.82470000
H      -42.89970000     -31.79870000     -74.78020000
H      -46.84370000     -33.37050000     -74.18560000
H      -45.87070000     -29.29510000     -73.03180000
H      -43.51300000     -29.58570000     -73.65990000
C      -47.95260000     -31.09450000     -73.08640000
H      -48.69080000     -31.01460000     -73.87490000
H      -47.95580000     -30.06330000     -72.63390000
C      -44.41470000     -34.03490000     -75.04330000
H      -44.52140000     -34.07330000     -76.14810000
H      -43.38330000     -34.34300000     -74.89510000
S      -48.55580000     -32.33340000     -71.92460000
S      -45.35030000     -35.53300000     -74.42140000
C      -47.26990000     -32.27090000     -70.61000000
H      -46.30130000     -32.32760000     -71.11130000
H      -47.23330000     -31.28900000     -70.09780000
C      -44.48500000     -35.72330000     -72.82640000
H      -43.49290000     -35.25190000     -72.97170000
H      -44.14460000     -36.81250000     -72.66540000
C      -45.18320000     -35.01180000     -71.68070000
H      -45.55490000     -34.00340000     -71.89440000
H      -46.06830000     -35.50250000     -71.39110000
C      -47.44210000     -33.36120000     -69.56630000
H      -47.66170000     -34.31540000     -69.99070000
H      -48.30770000     -33.14760000     -68.90690000
C      -46.11960000     -33.49850000     -68.71380000
C      -46.08190000     -33.22630000     -67.37280000
C      -44.87340000     -34.05050000     -69.20670000
H      -46.86880000     -32.79610000     -66.75030000
C      -43.89630000     -33.95360000     -68.28840000
C      -44.44150000     -34.84150000     -70.34320000
C      -43.10790000     -35.20650000     -70.25750000
S      -44.39170000     -33.26310000     -66.80820000
S      -42.36180000     -34.69210000     -68.75990000
H      -42.56340000     -35.72430000     -70.99470000
