40
Properties=species:S:1:pos:R:3 #=T CELL(abcABC):=T 1.889726e+02=T 90.00000=T Traj:=T positionsangstrom=T Step:=T 0=T Bead:=T pbc="F F F"
C      -45.23740000     -33.99920000     -67.35210000
C      -46.49380000     -33.96190000     -67.99990000
C      -46.85040000     -32.73470000     -68.62670000
C      -46.14840000     -31.59070000     -68.52530000
C      -44.84580000     -31.67320000     -67.89920000
C      -44.41970000     -32.83630000     -67.22640000
H      -44.97210000     -34.93180000     -66.85200000
H      -47.77490000     -32.82030000     -69.10580000
H      -44.15740000     -30.87440000     -67.94350000
H      -43.37840000     -32.95580000     -66.82350000
C      -46.66990000     -30.31920000     -69.06930000
H      -45.98820000     -29.53540000     -68.73850000
H      -47.61520000     -30.03100000     -68.61730000
C      -47.39110000     -35.20230000     -68.07990000
H      -46.73230000     -35.97680000     -67.80680000
H      -48.23730000     -35.21530000     -67.34550000
S      -46.87050000     -30.22230000     -70.89500000
S      -48.08300000     -35.48790000     -69.80120000
C      -45.45690000     -31.34160000     -71.51850000
H      -44.52250000     -30.76520000     -71.37730000
H      -45.47870000     -32.14600000     -70.84690000
C      -46.48300000     -35.84470000     -70.77720000
H      -46.70660000     -36.58420000     -71.59940000
H      -45.57170000     -36.27620000     -70.21900000
C      -45.97090000     -34.57150000     -71.52090000
H      -46.80470000     -34.14410000     -72.00670000
H      -45.60590000     -33.83450000     -70.71410000
C      -45.72540000     -31.66140000     -72.96930000
H      -45.78450000     -30.76190000     -73.61590000
H      -46.60990000     -32.23300000     -73.14310000
C      -44.58170000     -32.38990000     -73.61510000
C      -43.77750000     -31.78640000     -74.54000000
C      -44.29890000     -33.78730000     -73.40630000
H      -43.93180000     -30.84510000     -75.11750000
C      -43.26230000     -34.21110000     -74.24690000
C      -44.92160000     -34.79040000     -72.56900000
C      -44.30730000     -36.02760000     -72.83720000
S      -42.56960000     -32.85740000     -75.15910000
S      -42.93460000     -35.88430000     -73.91180000
H      -44.53320000     -37.01100000     -72.42020000
