40
Properties=species:S:1:pos:R:3 #=T CELL(abcABC):=T 1.889726e+02=T 90.00000=T Traj:=T positionsangstrom=T Step:=T 0=T Bead:=T pbc="F F F"
C      -46.13660000     -33.94690000     -74.97300000
C      -47.28840000     -33.61430000     -74.21560000
C      -47.35000000     -32.31120000     -73.72260000
C      -46.37790000     -31.33650000     -73.96880000
C      -45.28940000     -31.59070000     -74.80010000
C      -45.21270000     -32.92650000     -75.29120000
H      -45.98690000     -34.99000000     -75.25570000
H      -48.09330000     -31.94670000     -72.96800000
H      -44.56040000     -30.86260000     -75.17550000
H      -44.33800000     -33.25260000     -75.86480000
C      -46.55210000     -29.91930000     -73.39190000
H      -47.47200000     -29.43500000     -73.64330000
H      -45.74030000     -29.30010000     -73.67080000
C      -48.25330000     -34.63780000     -73.63930000
H      -49.27150000     -34.40410000     -74.10810000
H      -47.97040000     -35.67380000     -73.94830000
S      -46.37870000     -29.95730000     -71.53970000
S      -48.42020000     -34.46890000     -71.86320000
C      -45.10960000     -31.24290000     -71.24770000
H      -45.33460000     -32.14640000     -71.85780000
H      -44.02400000     -30.86620000     -71.27760000
C      -46.73840000     -34.90750000     -71.28970000
H      -46.04750000     -34.06420000     -71.54990000
H      -46.34430000     -35.78370000     -71.93680000
C      -46.58180000     -35.23580000     -69.81540000
H      -47.14820000     -34.45170000     -69.21950000
H      -47.02950000     -36.21960000     -69.60460000
C      -45.27090000     -31.72460000     -69.71530000
H      -46.33130000     -32.03230000     -69.46280000
H      -45.11900000     -30.85120000     -69.12950000
C      -44.16840000     -32.76320000     -69.43340000
C      -42.91110000     -32.24340000     -69.20580000
C      -44.11740000     -34.15130000     -69.35680000
H      -42.62100000     -31.18160000     -69.35240000
C      -42.83090000     -34.74610000     -69.05700000
C      -45.09950000     -35.27150000     -69.44340000
C      -44.50440000     -36.49380000     -69.43470000
S      -41.63020000     -33.49660000     -69.11350000
S      -42.79500000     -36.46740000     -69.01340000
H      -45.05720000     -37.46570000     -69.26810000
