40
Properties=species:S:1:pos:R:3 #=T CELL(abcABC):=T 1.889726e+02=T 90.00000=T Traj:=T positionsangstrom=T Step:=T 0=T Bead:=T pbc="F F F"
C      -43.89390000     -31.73410000     -73.94990000
C      -44.91180000     -32.59580000     -74.38400000
C      -46.22600000     -32.27860000     -74.17680000
C      -46.51860000     -31.06650000     -73.55500000
C      -45.55790000     -30.21180000     -73.06130000
C      -44.22380000     -30.55270000     -73.30970000
H      -42.88150000     -32.08960000     -73.97570000
H      -46.91860000     -33.07740000     -74.50310000
H      -45.83340000     -29.34680000     -72.48930000
H      -43.43770000     -29.87070000     -72.95250000
C      -47.95330000     -30.72130000     -73.13130000
H      -48.64170000     -30.85280000     -74.02100000
H      -48.05360000     -29.75620000     -72.68860000
C      -44.48690000     -33.88830000     -74.97540000
H      -44.51130000     -33.80520000     -76.08530000
H      -43.37410000     -34.05230000     -74.71490000
S      -48.51830000     -31.98320000     -71.94840000
S      -45.38950000     -35.37560000     -74.48960000
C      -47.26390000     -32.07510000     -70.57890000
H      -46.32310000     -31.82920000     -71.03700000
H      -47.45570000     -31.25720000     -69.88260000
C      -44.45060000     -35.70620000     -72.94760000
H      -43.34830000     -35.63880000     -73.24620000
H      -44.62590000     -36.78660000     -72.73330000
C      -44.83630000     -34.73780000     -71.85610000
H      -44.59250000     -33.73580000     -72.20810000
H      -45.98130000     -34.76220000     -71.75220000
C      -47.35220000     -33.36970000     -69.84770000
H      -47.49700000     -34.21610000     -70.58330000
H      -48.27740000     -33.35770000     -69.28630000
C      -46.13130000     -33.66990000     -68.89740000
C      -46.20540000     -33.52900000     -67.52350000
C      -44.87980000     -34.29030000     -69.32990000
H      -47.00400000     -33.16140000     -66.94070000
C      -43.97530000     -34.33160000     -68.29200000
C      -44.24540000     -34.84960000     -70.49220000
C      -42.93160000     -35.26260000     -70.32220000
S      -44.55310000     -33.66460000     -66.81630000
S      -42.40190000     -34.98740000     -68.69850000
H      -42.27050000     -35.73640000     -71.07000000
