40
Properties=species:S:1:pos:R:3 #=T CELL(abcABC):=T 1.889726e+02=T 90.00000=T Traj:=T positionsangstrom=T Step:=T 0=T Bead:=T pbc="F F F"
C      -44.37870000     -31.99780000     -74.76270000
C      -45.36860000     -32.96890000     -74.71050000
C      -46.62620000     -32.64290000     -74.23240000
C      -46.80130000     -31.36090000     -73.63050000
C      -45.77420000     -30.43940000     -73.61260000
C      -44.55700000     -30.75700000     -74.17670000
H      -43.50100000     -32.26490000     -75.26520000
H      -47.40810000     -33.38340000     -74.38910000
H      -45.88740000     -29.47610000     -73.17770000
H      -43.72110000     -30.15350000     -74.22260000
C      -48.18130000     -31.05470000     -73.12270000
H      -48.90640000     -31.19490000     -73.92500000
H      -48.26900000     -29.99700000     -72.82100000
C      -45.20030000     -34.28800000     -75.33740000
H      -45.99520000     -34.40220000     -76.10610000
H      -44.30230000     -34.41560000     -75.92180000
S      -48.60430000     -32.23290000     -71.75670000
S      -45.28620000     -35.77910000     -74.26460000
C      -47.07570000     -32.09420000     -70.71830000
H      -46.13050000     -32.25340000     -71.32600000
H      -47.05480000     -31.09080000     -70.28790000
C      -44.12670000     -35.43450000     -72.81410000
H      -43.38720000     -34.72350000     -73.02880000
H      -43.42220000     -36.28660000     -72.62490000
C      -45.01410000     -34.99620000     -71.61980000
H      -45.41930000     -34.00560000     -71.89040000
H      -45.96750000     -35.61550000     -71.55370000
C      -47.07800000     -33.22480000     -69.59170000
H      -47.26760000     -34.22060000     -70.02880000
H      -47.96300000     -33.04000000     -69.00660000
C      -45.87900000     -33.27890000     -68.70210000
C      -45.78580000     -32.74430000     -67.42360000
C      -44.65830000     -33.96900000     -69.12640000
H      -46.55670000     -32.16950000     -66.89680000
C      -43.64400000     -33.94070000     -68.12240000
C      -44.25370000     -34.79110000     -70.30740000
C      -42.91630000     -35.17500000     -70.17400000
S      -44.15750000     -33.00410000     -66.68820000
S      -42.25690000     -34.85140000     -68.55890000
H      -42.42050000     -35.77060000     -70.95390000
