40
Properties=species:S:1:pos:R:3 #=T CELL(abcABC):=T 1.889726e+02=T 90.00000=T Traj:=T positionsangstrom=T Step:=T 0=T Bead:=T pbc="F F F"
C      -44.50710000     -32.27130000     -74.92610000
C      -45.56330000     -33.22700000     -74.82970000
C      -46.68210000     -32.87790000     -74.13160000
C      -46.89500000     -31.62910000     -73.59050000
C      -45.88500000     -30.68060000     -73.80710000
C      -44.64170000     -31.02050000     -74.29910000
H      -43.59850000     -32.44070000     -75.51080000
H      -47.51170000     -33.54650000     -73.95430000
H      -46.06620000     -29.66740000     -73.42870000
H      -43.89020000     -30.24100000     -74.38330000
C      -48.20840000     -31.14410000     -72.90870000
H      -49.07230000     -31.12240000     -73.59400000
H      -48.14220000     -30.15240000     -72.52130000
C      -45.38680000     -34.60590000     -75.48760000
H      -46.22510000     -34.93760000     -76.13640000
H      -44.49220000     -34.57330000     -76.11200000
S      -48.72650000     -32.15800000     -71.42130000
S      -45.44200000     -35.93020000     -74.10000000
C      -47.09420000     -32.09510000     -70.54920000
H      -46.27420000     -32.29470000     -71.25140000
H      -46.93580000     -31.18360000     -70.02940000
C      -44.15850000     -35.32980000     -72.91220000
H      -43.43520000     -34.64790000     -73.32740000
H      -43.50380000     -36.16290000     -72.60610000
C      -44.78690000     -34.60520000     -71.65230000
H      -45.35640000     -33.65240000     -71.99780000
H      -45.68520000     -35.25520000     -71.32660000
C      -47.11020000     -33.17960000     -69.48130000
H      -47.34730000     -34.15820000     -69.99330000
H      -47.89920000     -32.97340000     -68.72370000
C      -45.78210000     -33.27610000     -68.76260000
C      -45.73440000     -32.94490000     -67.44190000
C      -44.52660000     -33.71040000     -69.26290000
H      -46.62430000     -32.68540000     -66.86580000
C      -43.57720000     -33.76850000     -68.21170000
C      -43.96370000     -34.38050000     -70.44740000
C      -42.68130000     -34.76340000     -70.27710000
S      -44.18380000     -33.21440000     -66.72900000
S      -41.98580000     -34.42240000     -68.73950000
H      -42.06690000     -35.10940000     -71.06450000
