40
Properties=species:S:1:pos:R:3 #=T CELL(abcABC):=T 1.889726e+02=T 90.00000=T Traj:=T positionsangstrom=T Step:=T 0=T Bead:=T pbc="F F F"
C      -44.16820000     -31.89220000     -74.81120000
C      -45.10610000     -32.94410000     -74.70770000
C      -46.39120000     -32.70790000     -74.12300000
C      -46.66280000     -31.46520000     -73.55520000
C      -45.65550000     -30.49510000     -73.66270000
C      -44.44310000     -30.62810000     -74.26200000
H      -43.21390000     -32.02370000     -75.35170000
H      -47.06000000     -33.53940000     -74.08610000
H      -45.94710000     -29.52000000     -73.29050000
H      -43.76680000     -29.87610000     -74.39040000
C      -47.98300000     -31.14770000     -72.96600000
H      -48.74960000     -31.03060000     -73.78870000
H      -47.92220000     -30.09690000     -72.61300000
C      -44.82460000     -34.24850000     -75.38750000
H      -45.44650000     -34.43030000     -76.25850000
H      -43.75380000     -34.27830000     -75.71800000
S      -48.64900000     -32.22600000     -71.67420000
S      -45.26450000     -35.76330000     -74.30840000
C      -47.19460000     -32.04570000     -70.50170000
H      -46.26950000     -32.08530000     -71.11180000
H      -47.29650000     -31.10930000     -69.96500000
C      -44.27870000     -35.37150000     -72.82050000
H      -43.71780000     -34.42380000     -73.11450000
H      -43.66610000     -36.22840000     -72.55840000
C      -45.14850000     -35.04500000     -71.57970000
H      -45.64690000     -34.09870000     -71.62800000
H      -45.99070000     -35.77940000     -71.46790000
C      -47.29600000     -33.24000000     -69.50720000
H      -47.38000000     -34.22260000     -70.03630000
H      -48.05200000     -33.12250000     -68.78590000
C      -45.95770000     -33.32280000     -68.75330000
C      -45.78100000     -32.68470000     -67.53860000
C      -44.79780000     -34.02850000     -69.20320000
H      -46.50440000     -32.12190000     -67.00150000
C      -43.78340000     -33.93940000     -68.23670000
C      -44.33750000     -34.86390000     -70.28250000
C      -42.99510000     -35.24390000     -70.16700000
S      -44.29240000     -33.05270000     -66.77790000
S      -42.31590000     -34.78210000     -68.59950000
H      -42.42790000     -35.99830000     -70.76800000
