40
Properties=species:S:1:pos:R:3 #=T CELL(abcABC):=T 1.889726e+02=T 90.00000=T Traj:=T positionsangstrom=T Step:=T 0=T Bead:=T pbc="F F F"
C      -44.76410000     -32.11140000     -75.01240000
C      -45.78490000     -33.04090000     -74.80270000
C      -46.85840000     -32.76560000     -73.92810000
C      -46.90640000     -31.48770000     -73.34820000
C      -45.89000000     -30.55600000     -73.55820000
C      -44.80830000     -30.91950000     -74.36930000
H      -43.95490000     -32.31660000     -75.70610000
H      -47.56560000     -33.58260000     -73.75730000
H      -45.96620000     -29.53390000     -73.11880000
H      -43.97490000     -30.22520000     -74.38990000
C      -48.14710000     -31.04810000     -72.53870000
H      -48.99270000     -31.08510000     -73.23960000
H      -48.00790000     -29.97370000     -72.22270000
C      -45.53540000     -34.40150000     -75.46070000
H      -46.30100000     -34.66940000     -76.25050000
H      -44.56490000     -34.46130000     -76.01470000
S      -48.56710000     -32.19330000     -71.22000000
S      -45.66840000     -35.91830000     -74.32010000
C      -47.06290000     -32.19680000     -70.08010000
H      -46.30330000     -32.05360000     -70.81130000
H      -47.09010000     -31.34610000     -69.34120000
C      -44.44790000     -35.58810000     -72.98580000
H      -43.60340000     -35.17350000     -73.39690000
H      -44.18340000     -36.59810000     -72.66060000
C      -45.00700000     -34.88860000     -71.73360000
H      -45.39390000     -33.90020000     -72.00430000
H      -45.86650000     -35.48090000     -71.31270000
C      -47.00430000     -33.52670000     -69.30960000
H      -47.27270000     -34.31570000     -70.01710000
H      -47.79020000     -33.51400000     -68.51170000
C      -45.70710000     -33.60610000     -68.62490000
C      -45.59910000     -33.26400000     -67.28880000
C      -44.44120000     -33.96980000     -69.22160000
H      -46.34290000     -32.75950000     -66.72940000
C      -43.35760000     -33.77630000     -68.34250000
C      -44.06190000     -34.58410000     -70.53770000
C      -42.71310000     -34.72800000     -70.64240000
S      -43.89550000     -33.09490000     -66.82250000
S      -41.82730000     -34.11960000     -69.13390000
H      -42.16440000     -35.18930000     -71.44760000
