40
Properties=species:S:1:pos:R:3 #=T CELL(abcABC):=T 1.889726e+02=T 90.00000=T Traj:=T positionsangstrom=T Step:=T 0=T Bead:=T pbc="F F F"
C      -44.65290000     -32.27170000     -75.13610000
C      -45.64920000     -33.21330000     -74.86550000
C      -46.76340000     -32.78530000     -74.14200000
C      -46.90100000     -31.50890000     -73.60810000
C      -45.87730000     -30.58590000     -73.85750000
C      -44.75530000     -30.95670000     -74.67120000
H      -43.74930000     -32.50620000     -75.59180000
H      -47.59660000     -33.41240000     -73.88300000
H      -46.00970000     -29.57390000     -73.54710000
H      -44.08380000     -30.19900000     -74.89710000
C      -48.13090000     -31.12620000     -72.87900000
H      -48.96290000     -31.31610000     -73.58580000
H      -48.21990000     -30.04670000     -72.63270000
C      -45.41180000     -34.65360000     -75.35760000
H      -46.12280000     -34.97960000     -76.15290000
H      -44.39140000     -34.54190000     -75.76390000
S      -48.58710000     -32.21650000     -71.42430000
S      -45.44170000     -35.97410000     -74.12070000
C      -47.19960000     -32.17720000     -70.19980000
H      -46.25120000     -32.03680000     -70.78440000
H      -47.23890000     -31.25610000     -69.66470000
C      -44.28880000     -35.38660000     -72.72940000
H      -43.53900000     -34.89000000     -73.29480000
H      -43.92500000     -36.30820000     -72.16780000
C      -44.96290000     -34.44090000     -71.71440000
H      -45.01560000     -33.48470000     -72.14900000
H      -45.87230000     -34.88160000     -71.46390000
C      -47.15010000     -33.43200000     -69.36280000
H      -47.29850000     -34.31760000     -70.03640000
H      -48.05850000     -33.52840000     -68.75510000
C      -45.82140000     -33.49440000     -68.56050000
C      -45.71720000     -32.99130000     -67.28300000
C      -44.53140000     -33.88960000     -69.11770000
H      -46.53360000     -32.70280000     -66.62600000
C      -43.47560000     -33.83870000     -68.17180000
C      -44.08330000     -34.32740000     -70.44020000
C      -42.73660000     -34.59710000     -70.45150000
S      -44.02130000     -33.12380000     -66.71770000
S      -41.91300000     -34.34030000     -68.90540000
H      -42.17760000     -35.07160000     -71.29320000
