40
Properties=species:S:1:pos:R:3 #=T CELL(abcABC):=T 1.889726e+02=T 90.00000=T Traj:=T positionsangstrom=T Step:=T 0=T Bead:=T pbc="F F F"
C      -44.67880000     -32.07150000     -75.06670000
C      -45.55620000     -33.08210000     -74.71300000
C      -46.65440000     -32.82310000     -73.92500000
C      -46.89990000     -31.45790000     -73.47380000
C      -46.00770000     -30.44160000     -73.90990000
C      -44.88920000     -30.76810000     -74.69090000
H      -43.82930000     -32.34440000     -75.72610000
H      -47.30600000     -33.66130000     -73.62900000
H      -46.14220000     -29.41050000     -73.63640000
H      -44.36370000     -29.89980000     -75.13650000
C      -48.05940000     -31.03490000     -72.65940000
H      -48.97200000     -30.71150000     -73.18620000
H      -47.81080000     -30.14130000     -72.07040000
C      -45.39570000     -34.52520000     -75.25660000
H      -46.14700000     -34.60430000     -76.08160000
H      -44.37150000     -34.68970000     -75.65290000
S      -48.57420000     -32.32790000     -71.46650000
S      -45.82160000     -35.87910000     -74.04680000
C      -47.07650000     -32.32290000     -70.37990000
H      -46.16810000     -32.56050000     -70.94180000
H      -46.86500000     -31.35320000     -69.96090000
C      -44.54130000     -35.46610000     -72.79100000
H      -43.91170000     -34.70200000     -73.28830000
H      -43.95870000     -36.29680000     -72.56120000
C      -45.12410000     -34.89160000     -71.56760000
H      -45.91010000     -34.12920000     -71.72880000
H      -45.64170000     -35.65060000     -70.99640000
C      -47.10660000     -33.44180000     -69.31960000
H      -47.35390000     -34.45200000     -69.79430000
H      -47.81740000     -33.23350000     -68.49320000
C      -45.76900000     -33.55190000     -68.60550000
C      -45.59500000     -33.25030000     -67.25390000
C      -44.45590000     -33.91560000     -69.18920000
H      -46.38860000     -33.00820000     -66.51830000
C      -43.35370000     -33.66890000     -68.39600000
C      -44.05690000     -34.42520000     -70.51390000
C      -42.63410000     -34.57540000     -70.55220000
S      -43.83420000     -33.31970000     -66.76140000
S      -41.83300000     -34.09700000     -69.04760000
H      -41.94160000     -34.74940000     -71.36670000
