40
Properties=species:S:1:pos:R:3 #=T CELL(abcABC):=T 1.889726e+02=T 90.00000=T Traj:=T positionsangstrom=T Step:=T 0=T Bead:=T pbc="F F F"
C      -44.72510000     -32.13830000     -74.46560000
C      -45.81830000     -33.01010000     -74.69270000
C      -47.07930000     -32.73330000     -74.15480000
C      -47.22890000     -31.60500000     -73.35800000
C      -46.15790000     -30.73880000     -73.08920000
C      -44.90760000     -31.05730000     -73.56060000
H      -43.74050000     -32.41970000     -74.87560000
H      -47.88380000     -33.48400000     -74.32390000
H      -46.36700000     -29.87330000     -72.40080000
H      -44.02830000     -30.39810000     -73.34530000
C      -48.54870000     -31.30500000     -72.80800000
H      -49.42700000     -31.68370000     -73.29250000
H      -48.66410000     -30.31310000     -72.43530000
C      -45.65770000     -34.32470000     -75.42600000
H      -46.41300000     -34.38870000     -76.18300000
H      -44.64540000     -34.49770000     -75.89510000
S      -48.70720000     -32.38380000     -71.25350000
S      -45.95350000     -35.68720000     -74.09640000
C      -47.05920000     -32.17690000     -70.38830000
H      -46.23170000     -32.23510000     -71.09850000
H      -47.04840000     -31.21740000     -69.87150000
C      -44.55940000     -35.22540000     -72.97750000
H      -44.00610000     -34.33570000     -73.34600000
H      -43.83260000     -36.07970000     -72.93560000
C      -45.06160000     -34.85300000     -71.64080000
H      -45.73190000     -34.04230000     -71.79150000
H      -45.66880000     -35.65360000     -71.35460000
C      -46.82890000     -33.31130000     -69.34890000
H      -46.93340000     -34.21550000     -69.87410000
H      -47.66810000     -33.32620000     -68.59240000
C      -45.44080000     -33.34860000     -68.73990000
C      -45.15970000     -32.88430000     -67.49800000
C      -44.25490000     -33.89940000     -69.35950000
H      -45.94610000     -32.28090000     -66.96690000
C      -43.14710000     -33.70380000     -68.61090000
C      -44.00340000     -34.64880000     -70.57050000
C      -42.65220000     -35.02650000     -70.60720000
S      -43.45790000     -32.94110000     -67.09230000
S      -41.73130000     -34.48900000     -69.27170000
H      -42.24440000     -35.75480000     -71.25920000
