40
Properties=species:S:1:pos:R:3 #=T CELL(abcABC):=T 1.889726e+02=T 90.00000=T Traj:=T positionsangstrom=T Step:=T 0=T Bead:=T pbc="F F F"
C      -44.83410000     -32.03600000     -74.70590000
C      -45.77490000     -33.07190000     -74.47330000
C      -46.88080000     -32.80580000     -73.67500000
C      -47.10010000     -31.47520000     -73.18630000
C      -46.32290000     -30.42690000     -73.65410000
C      -45.14220000     -30.71500000     -74.31090000
H      -43.92570000     -32.17170000     -75.25530000
H      -47.53210000     -33.61090000     -73.32060000
H      -46.60270000     -29.40670000     -73.51840000
H      -44.45080000     -29.97500000     -74.64030000
C      -48.44420000     -31.21890000     -72.46190000
H      -49.23980000     -31.34070000     -73.22420000
H      -48.49100000     -30.28410000     -72.03310000
C      -45.49660000     -34.44370000     -75.11650000
H      -46.13400000     -34.50000000     -76.00980000
H      -44.46710000     -34.48730000     -75.48320000
S      -48.78690000     -32.29210000     -71.00510000
S      -45.94920000     -35.92410000     -74.07560000
C      -47.13090000     -32.19100000     -70.14880000
H      -46.39190000     -32.05400000     -70.94150000
H      -47.14060000     -31.30630000     -69.51340000
C      -44.59320000     -35.78620000     -72.87670000
H      -43.71320000     -35.44370000     -73.33760000
H      -44.46560000     -36.77520000     -72.31570000
C      -45.12320000     -34.89220000     -71.72220000
H      -45.69020000     -34.07120000     -72.07130000
H      -45.86750000     -35.42500000     -71.14550000
C      -46.79450000     -33.38930000     -69.33930000
H      -46.85620000     -34.33320000     -69.93460000
H      -47.49280000     -33.49580000     -68.44630000
C      -45.45070000     -33.30580000     -68.74820000
C      -45.08680000     -32.86480000     -67.45260000
C      -44.28670000     -33.80820000     -69.44250000
H      -45.56510000     -32.25950000     -66.70470000
C      -43.10260000     -33.75440000     -68.66130000
C      -44.04030000     -34.49380000     -70.71690000
C      -42.72400000     -34.90030000     -70.83800000
S      -43.32640000     -32.95180000     -67.13350000
S      -41.77720000     -34.47500000     -69.42620000
H      -42.32280000     -35.64550000     -71.49720000
