40
Properties=species:S:1:pos:R:3 #=T CELL(abcABC):=T 1.889726e+02=T 90.00000=T Traj:=T positionsangstrom=T Step:=T 0=T Bead:=T pbc="F F F"
C      -45.03010000     -32.12850000     -74.91260000
C      -45.99870000     -33.15470000     -74.68260000
C      -47.03680000     -32.91040000     -73.79570000
C      -47.18220000     -31.58840000     -73.24490000
C      -46.26800000     -30.60010000     -73.58080000
C      -45.23630000     -30.81900000     -74.42590000
H      -44.10050000     -32.22950000     -75.46360000
H      -47.96710000     -33.53570000     -73.64650000
H      -46.34670000     -29.60920000     -73.05370000
H      -44.59450000     -30.00240000     -74.70230000
C      -48.40600000     -31.24930000     -72.49240000
H      -49.41190000     -31.30370000     -73.04680000
H      -48.49500000     -30.23400000     -72.02850000
C      -45.74730000     -34.50540000     -75.33350000
H      -46.40590000     -34.74280000     -76.18790000
H      -44.67520000     -34.53360000     -75.58910000
S      -48.65250000     -32.44880000     -70.99520000
S      -46.04480000     -35.83580000     -74.07160000
C      -47.06670000     -32.19220000     -70.21110000
H      -46.24590000     -32.24840000     -70.88660000
H      -46.94180000     -31.23840000     -69.61490000
C      -44.74830000     -35.63350000     -72.75660000
H      -43.86500000     -35.14870000     -73.23090000
H      -44.48840000     -36.66640000     -72.67750000
C      -45.12710000     -34.83440000     -71.54470000
H      -45.51010000     -33.88550000     -71.94850000
H      -46.08080000     -35.24620000     -70.99010000
C      -46.80820000     -33.26270000     -69.13190000
H      -47.11950000     -34.22650000     -69.38830000
H      -47.48350000     -33.01970000     -68.30910000
C      -45.35450000     -33.33580000     -68.66410000
C      -45.02000000     -32.82580000     -67.43010000
C      -44.21970000     -33.85620000     -69.38090000
H      -45.60240000     -32.45890000     -66.52460000
C      -43.05700000     -33.74340000     -68.62400000
C      -43.97900000     -34.50850000     -70.62780000
C      -42.70100000     -34.83580000     -70.77820000
S      -43.25430000     -32.96590000     -67.08400000
S      -41.60450000     -34.27090000     -69.47040000
H      -42.19320000     -35.30370000     -71.67130000
