40
Properties=species:S:1:pos:R:3 #=T CELL(abcABC):=T 1.889726e+02=T 90.00000=T Traj:=T positionsangstrom=T Step:=T 0=T Bead:=T pbc="F F F"
C      -46.23060000     -35.35780000     -74.21410000
C      -47.29850000     -34.61510000     -73.74430000
C      -47.14470000     -33.20260000     -73.83350000
C      -46.07630000     -32.59350000     -74.38320000
C      -44.98610000     -33.40270000     -74.94640000
C      -45.07090000     -34.77210000     -74.75560000
H      -46.20320000     -36.34930000     -74.05760000
H      -47.98500000     -32.57250000     -73.58170000
H      -44.03650000     -32.90670000     -75.29360000
H      -44.17120000     -35.33860000     -74.84630000
C      -45.95110000     -31.05370000     -74.44690000
H      -46.69640000     -30.58900000     -73.85720000
H      -45.86330000     -30.54790000     -75.39850000
C      -48.66950000     -35.06750000     -73.33960000
H      -49.37950000     -34.53680000     -74.03810000
H      -48.86900000     -36.13810000     -73.41170000
S      -44.33070000     -30.40050000     -73.72490000
S      -49.09170000     -34.56300000     -71.65510000
C      -43.67270000     -31.33680000     -72.27980000
H      -43.63170000     -32.42740000     -72.52290000
H      -42.64140000     -30.88790000     -72.20430000
C      -47.60340000     -35.04720000     -70.63730000
H      -47.16940000     -36.01360000     -70.86920000
H      -48.00610000     -35.05280000     -69.64210000
C      -46.44610000     -34.06450000     -70.64720000
H      -45.92940000     -33.87350000     -71.64840000
H      -46.80100000     -33.01400000     -70.44400000
C      -44.47110000     -31.24080000     -70.95940000
H      -45.45170000     -31.60660000     -71.03460000
H      -44.55120000     -30.16290000     -70.67890000
C      -43.87170000     -32.11610000     -69.83370000
C      -42.79790000     -31.58130000     -69.17460000
C      -44.30540000     -33.39080000     -69.31880000
H      -42.34830000     -30.59520000     -69.37320000
C      -43.51450000     -33.82990000     -68.27080000
C      -45.41640000     -34.34240000     -69.55800000
C      -45.44170000     -35.36670000     -68.68300000
S      -42.16310000     -32.70750000     -68.00280000
S      -44.02660000     -35.35610000     -67.62930000
H      -46.23530000     -36.14130000     -68.65670000
