40
Properties=species:S:1:pos:R:3 #=T CELL(abcABC):=T 1.889726e+02=T 90.00000=T Traj:=T positionsangstrom=T Step:=T 0=T Bead:=T pbc="F F F"
C      -45.32020000     -32.37440000     -74.50270000
C      -46.29510000     -33.40580000     -74.43410000
C      -47.47890000     -33.19200000     -73.68930000
C      -47.76000000     -31.95600000     -73.09130000
C      -46.86140000     -30.90460000     -73.24340000
C      -45.61940000     -31.11710000     -73.83790000
H      -44.32980000     -32.55470000     -74.92260000
H      -48.21860000     -34.01410000     -73.48040000
H      -47.10150000     -29.95210000     -72.75500000
H      -44.85840000     -30.33790000     -73.81480000
C      -48.99300000     -31.76770000     -72.26020000
H      -49.74880000     -32.29300000     -72.66960000
H      -49.17100000     -30.68490000     -72.08340000
C      -45.95900000     -34.70830000     -75.08760000
H      -46.78140000     -34.93890000     -75.75390000
H      -45.01580000     -34.66990000     -75.68190000
S      -48.88970000     -32.64690000     -70.51250000
S      -45.70930000     -36.25400000     -74.03190000
C      -47.11540000     -32.40360000     -69.91020000
H      -46.49000000     -32.23630000     -70.83200000
H      -46.94200000     -31.50840000     -69.36010000
C      -44.33620000     -35.66110000     -72.90940000
H      -43.84530000     -34.88650000     -73.49650000
H      -43.52250000     -36.38770000     -72.70690000
C      -44.88960000     -35.09030000     -71.61670000
H      -45.71550000     -34.40050000     -71.83600000
H      -45.44280000     -35.84600000     -71.08880000
C      -46.57290000     -33.64440000     -69.09100000
H      -46.65890000     -34.53430000     -69.71070000
H      -47.20470000     -33.72100000     -68.19650000
C      -45.16420000     -33.29430000     -68.76870000
C      -44.76630000     -32.58000000     -67.67510000
C      -44.01180000     -33.69090000     -69.57050000
H      -45.46050000     -32.27110000     -66.90350000
C      -42.83990000     -33.06710000     -69.06180000
C      -43.79950000     -34.42360000     -70.80700000
C      -42.46890000     -34.53270000     -71.10330000
S      -43.07520000     -32.24610000     -67.52740000
S      -41.38080000     -33.55350000     -69.96050000
H      -41.89120000     -34.70560000     -72.00060000
