40
Properties=species:S:1:pos:R:3 #=T CELL(abcABC):=T 1.889726e+02=T 90.00000=T Traj:=T positionsangstrom=T Step:=T 0=T Bead:=T pbc="F F F"
C      -45.25720000     -32.39660000     -74.85550000
C      -46.24550000     -33.28800000     -74.58320000
C      -47.32350000     -32.88180000     -73.76740000
C      -47.37200000     -31.68980000     -73.07790000
C      -46.19550000     -30.88140000     -73.20320000
C      -45.19440000     -31.23760000     -74.09980000
H      -44.40610000     -32.74610000     -75.45680000
H      -48.15840000     -33.54670000     -73.56830000
H      -46.06930000     -29.91680000     -72.61410000
H      -44.40640000     -30.51690000     -74.25570000
C      -48.55960000     -31.31740000     -72.25850000
H      -49.53290000     -31.32400000     -72.75850000
H      -48.48280000     -30.36630000     -71.83140000
C      -46.28270000     -34.68560000     -75.14970000
H      -47.26430000     -34.83580000     -75.65160000
H      -45.50970000     -34.95340000     -75.87110000
S      -48.78520000     -32.64500000     -70.90980000
S      -46.03550000     -36.05670000     -73.86610000
C      -47.14950000     -32.29670000     -70.05970000
H      -46.38140000     -32.10950000     -70.76080000
H      -47.24050000     -31.37780000     -69.44180000
C      -44.60170000     -35.33590000     -72.90260000
H      -44.17690000     -34.59030000     -73.58720000
H      -43.84360000     -36.10910000     -72.76200000
C      -45.04060000     -34.68880000     -71.62420000
H      -45.69210000     -33.88560000     -71.71270000
H      -45.63690000     -35.43430000     -71.01400000
C      -46.71730000     -33.40990000     -69.11960000
H      -46.99350000     -34.32310000     -69.61700000
H      -47.36160000     -33.51280000     -68.17530000
C      -45.17920000     -33.21230000     -68.70660000
C      -44.78250000     -32.76870000     -67.45700000
C      -44.11510000     -33.65190000     -69.53780000
H      -45.52870000     -32.30450000     -66.84740000
C      -42.90030000     -33.39830000     -68.91690000
C      -43.88940000     -34.22960000     -70.80250000
C      -42.58740000     -34.50520000     -71.10510000
S      -43.03990000     -32.83520000     -67.29480000
S      -41.49910000     -33.98390000     -69.73090000
H      -42.25030000     -35.08940000     -71.95040000
