40
Properties=species:S:1:pos:R:3 #=T CELL(abcABC):=T 1.889726e+02=T 90.00000=T Traj:=T positionsangstrom=T Step:=T 0=T Bead:=T pbc="F F F"
C      -45.38370000     -32.45750000     -74.65590000
C      -46.39370000     -33.40830000     -74.49060000
C      -47.56460000     -33.06480000     -73.86590000
C      -47.63350000     -31.91560000     -73.09100000
C      -46.55940000     -31.03780000     -73.12860000
C      -45.50860000     -31.25210000     -73.98320000
H      -44.45800000     -32.73460000     -75.23200000
H      -48.31930000     -33.78760000     -73.92580000
H      -46.52990000     -30.18510000     -72.50210000
H      -44.73000000     -30.52410000     -74.04380000
C      -48.85770000     -31.61850000     -72.25550000
H      -49.75160000     -31.92170000     -72.79900000
H      -48.91450000     -30.61610000     -72.05220000
C      -46.23950000     -34.83020000     -75.08920000
H      -47.14450000     -35.05740000     -75.59430000
H      -45.34850000     -34.73450000     -75.78630000
S      -48.72260000     -32.50590000     -70.59200000
S      -46.00580000     -36.17120000     -73.86560000
C      -46.91150000     -32.30060000     -70.01000000
H      -46.32780000     -32.10690000     -70.89630000
H      -46.86460000     -31.39170000     -69.43890000
C      -44.52590000     -35.60420000     -72.84250000
H      -43.66030000     -35.27970000     -73.43420000
H      -44.20410000     -36.50270000     -72.32060000
C      -44.93970000     -34.50030000     -71.89190000
H      -45.20330000     -33.50870000     -72.32560000
H      -45.80510000     -34.86060000     -71.31880000
C      -46.49920000     -33.42820000     -69.11740000
H      -46.71010000     -34.45620000     -69.59950000
H      -47.16450000     -33.43190000     -68.26300000
C      -45.05320000     -33.41930000     -68.68470000
C      -44.78290000     -32.80920000     -67.50730000
C      -43.95010000     -33.67180000     -69.55470000
H      -45.38100000     -32.54740000     -66.62770000
C      -42.74880000     -33.39300000     -68.93540000
C      -43.81600000     -34.19230000     -70.91130000
C      -42.47610000     -34.36150000     -71.23590000
S      -42.99720000     -32.49960000     -67.36620000
S      -41.47200000     -33.78480000     -69.95060000
H      -42.20370000     -34.53100000     -72.29370000
