40
Properties=species:S:1:pos:R:3 #=T CELL(abcABC):=T 1.889726e+02=T 90.00000=T Traj:=T positionsangstrom=T Step:=T 0=T Bead:=T pbc="F F F"
C      -42.94880000     -30.34740000     -73.66140000
C      -44.01810000     -30.27090000     -72.78970000
C      -45.23490000     -30.82450000     -73.11990000
C      -45.42900000     -31.55120000     -74.31280000
C      -44.43440000     -31.30570000     -75.27380000
C      -43.26510000     -30.70540000     -74.98320000
H      -41.94910000     -29.91980000     -73.38570000
H      -46.01150000     -30.73950000     -72.36580000
H      -44.44570000     -31.74160000     -76.24900000
H      -42.43920000     -30.64060000     -75.70770000
C      -46.68810000     -32.32840000     -74.59690000
H      -47.12240000     -31.95470000     -75.56090000
H      -47.40870000     -32.19720000     -73.74340000
C      -43.75760000     -29.72010000     -71.37710000
H      -43.24330000     -28.75940000     -71.34150000
H      -44.64240000     -29.54400000     -70.87660000
S      -46.27440000     -34.10620000     -74.79930000
S      -42.78210000     -30.87850000     -70.37010000
C      -46.02450000     -34.56210000     -73.02550000
H      -45.82220000     -35.61350000     -73.05690000
H      -45.04770000     -34.08890000     -72.76670000
C      -43.56090000     -32.48370000     -70.42850000
H      -42.78870000     -33.16200000     -70.00930000
H      -43.76940000     -32.80570000     -71.38160000
C      -44.81500000     -32.48770000     -69.56110000
H      -44.63120000     -31.76110000     -68.76330000
H      -45.64870000     -31.96260000     -70.24750000
C      -47.12390000     -34.09190000     -71.99200000
H      -48.12810000     -34.21360000     -72.26320000
H      -46.92960000     -33.05470000     -71.66640000
C      -46.95370000     -35.05750000     -70.83740000
C      -47.67430000     -36.24810000     -70.72480000
C      -46.12760000     -34.87260000     -69.60790000
H      -48.41370000     -36.41760000     -71.47500000
C      -46.23490000     -35.96980000     -68.65490000
C      -45.24700000     -33.86170000     -68.99740000
C      -44.79120000     -34.17400000     -67.76630000
S      -47.34170000     -37.22050000     -69.28780000
S      -45.36830000     -35.66330000     -67.15710000
H      -44.27510000     -33.41200000     -67.21470000
