40
Properties=species:S:1:pos:R:3 #=T CELL(abcABC):=T 1.889726e+02=T 90.00000=T Traj:=T positionsangstrom=T Step:=T 0=T Bead:=T pbc="F F F"
C      -45.34630000     -32.49780000     -74.56150000
C      -46.28730000     -33.51940000     -74.41660000
C      -47.50910000     -33.22210000     -73.70630000
C      -47.72540000     -32.00370000     -73.06900000
C      -46.76030000     -30.98870000     -73.30400000
C      -45.54390000     -31.24000000     -73.98060000
H      -44.35620000     -32.74130000     -75.11400000
H      -48.19510000     -34.02450000     -73.64740000
H      -46.85730000     -29.98780000     -72.92450000
H      -44.79740000     -30.49280000     -74.20040000
C      -48.92400000     -31.65760000     -72.23340000
H      -49.95940000     -31.98860000     -72.69000000
H      -48.98950000     -30.59770000     -72.08010000
C      -46.08190000     -34.78170000     -75.10210000
H      -46.90730000     -35.10280000     -75.76230000
H      -45.21850000     -34.76240000     -75.78910000
S      -48.88000000     -32.44860000     -70.54920000
S      -45.98650000     -36.19610000     -73.96360000
C      -47.06740000     -32.33590000     -70.02320000
H      -46.49350000     -32.40240000     -70.92630000
H      -46.86630000     -31.33580000     -69.52130000
C      -44.57620000     -35.69150000     -72.90860000
H      -43.74750000     -35.17000000     -73.51260000
H      -44.07660000     -36.59110000     -72.60630000
C      -44.91270000     -34.83970000     -71.66750000
H      -45.48930000     -34.05680000     -72.02930000
H      -45.52130000     -35.37480000     -70.92590000
C      -46.51930000     -33.38390000     -69.04550000
H      -46.71010000     -34.36510000     -69.49130000
H      -47.16140000     -33.44510000     -68.14450000
C      -45.09550000     -33.25450000     -68.78370000
C      -44.64620000     -32.64700000     -67.66140000
C      -43.96930000     -33.60110000     -69.65090000
H      -45.17870000     -32.14210000     -66.93330000
C      -42.76370000     -33.21020000     -69.05190000
C      -43.75600000     -34.26320000     -70.91030000
C      -42.38000000     -34.39480000     -71.14960000
S      -42.94270000     -32.54540000     -67.41410000
S      -41.38890000     -33.63100000     -69.86170000
H      -41.93430000     -34.87460000     -72.00140000
