40
Properties=species:S:1:pos:R:3 #=T CELL(abcABC):=T 1.889726e+02=T 90.00000=T Traj:=T positionsangstrom=T Step:=T 0=T Bead:=T pbc="F F F"
C      -45.38030000     -32.25190000     -74.64170000
C      -46.18410000     -33.41050000     -74.37030000
C      -47.30450000     -33.30050000     -73.47030000
C      -47.60670000     -32.10880000     -72.92050000
C      -46.75930000     -30.99780000     -73.05290000
C      -45.61290000     -31.07110000     -73.82700000
H      -44.52790000     -32.39300000     -75.29750000
H      -48.00260000     -34.12250000     -73.38820000
H      -47.07660000     -30.09120000     -72.59740000
H      -45.06350000     -30.15250000     -73.88180000
C      -48.83620000     -31.89330000     -72.04650000
H      -49.76340000     -32.06360000     -72.62820000
H      -48.87770000     -30.78320000     -71.77240000
C      -46.01150000     -34.66030000     -75.19160000
H      -46.91030000     -34.90190000     -75.74560000
H      -45.26310000     -34.47760000     -76.00890000
S      -48.90340000     -32.91310000     -70.58550000
S      -45.61060000     -36.10400000     -74.11970000
C      -47.16810000     -32.57870000     -70.09880000
H      -46.62220000     -32.65080000     -71.04550000
H      -47.07110000     -31.54620000     -69.66620000
C      -44.33430000     -35.58290000     -72.97030000
H      -43.68000000     -34.79020000     -73.46900000
H      -43.67440000     -36.43080000     -72.77720000
C      -44.88430000     -35.01220000     -71.64590000
H      -45.60630000     -34.24970000     -71.88300000
H      -45.36840000     -35.77460000     -71.02330000
C      -46.62810000     -33.67590000     -69.15500000
H      -46.75450000     -34.72430000     -69.55590000
H      -47.20060000     -33.66100000     -68.25320000
C      -45.20580000     -33.35150000     -68.74400000
C      -44.89500000     -32.47800000     -67.72720000
C      -44.03830000     -33.56630000     -69.58040000
H      -45.64260000     -31.97650000     -67.06500000
C      -42.87130000     -33.12350000     -68.94980000
C      -43.79590000     -34.36540000     -70.77530000
C      -42.46650000     -34.40630000     -71.05090000
S      -43.20020000     -32.17460000     -67.59950000
S      -41.42200000     -33.51730000     -69.86770000
H      -41.91250000     -34.63560000     -72.04260000
