40
Properties=species:S:1:pos:R:3 #=T CELL(abcABC):=T 1.889726e+02=T 90.00000=T Traj:=T positionsangstrom=T Step:=T 0=T Bead:=T pbc="F F F"
C      -45.36340000     -32.18360000     -74.61220000
C      -46.24850000     -33.30900000     -74.49090000
C      -47.41470000     -33.16920000     -73.79830000
C      -47.63480000     -32.05660000     -73.01420000
C      -46.82460000     -30.91310000     -73.08330000
C      -45.71180000     -30.99520000     -73.97570000
H      -44.50130000     -32.35760000     -75.22830000
H      -48.01420000     -34.04580000     -73.67760000
H      -46.94950000     -30.02670000     -72.44980000
H      -45.04550000     -30.15340000     -73.99640000
C      -48.88520000     -31.97550000     -72.15600000
H      -49.80610000     -32.17620000     -72.76030000
H      -48.96680000     -31.06040000     -71.71080000
C      -45.87560000     -34.56740000     -75.20590000
H      -46.71300000     -34.91930000     -75.88310000
H      -44.98950000     -34.40810000     -75.75710000
S      -48.85550000     -33.20650000     -70.71830000
S      -45.62610000     -36.04120000     -74.13820000
C      -47.31420000     -32.57120000     -69.85000000
H      -46.66430000     -32.12760000     -70.55820000
H      -47.48410000     -31.73170000     -69.17230000
C      -44.18070000     -35.43690000     -73.06550000
H      -43.69690000     -34.59120000     -73.52500000
H      -43.56750000     -36.30670000     -73.01110000
C      -44.78570000     -34.96470000     -71.68080000
H      -45.64770000     -34.28750000     -71.79770000
H      -45.19450000     -35.88560000     -71.22510000
C      -46.69020000     -33.73590000     -69.01650000
H      -46.81170000     -34.68340000     -69.54880000
H      -47.28940000     -33.93190000     -68.13640000
C      -45.23890000     -33.37380000     -68.66250000
C      -44.92850000     -32.53600000     -67.60280000
C      -44.05270000     -33.69120000     -69.46270000
H      -45.60810000     -32.27360000     -66.77140000
C      -42.89830000     -33.14390000     -68.88760000
C      -43.75030000     -34.41150000     -70.70350000
C      -42.39760000     -34.36330000     -70.94700000
S      -43.19540000     -32.12720000     -67.54840000
S      -41.37990000     -33.47620000     -69.80600000
H      -42.05860000     -35.14080000     -71.70120000
