40
Properties=species:S:1:pos:R:3 #=T CELL(abcABC):=T 1.889726e+02=T 90.00000=T Traj:=T positionsangstrom=T Step:=T 0=T Bead:=T pbc="F F F"
C      -45.39280000     -32.12690000     -74.60350000
C      -46.22570000     -33.24930000     -74.54820000
C      -47.42540000     -33.22240000     -73.87640000
C      -47.74010000     -32.02710000     -73.15660000
C      -46.87490000     -30.85780000     -73.22580000
C      -45.67010000     -30.88950000     -74.02630000
H      -44.42210000     -32.23070000     -75.09280000
H      -47.98120000     -34.12260000     -73.79660000
H      -47.19270000     -29.93240000     -72.65150000
H      -45.00620000     -30.06500000     -74.13220000
C      -48.88770000     -32.05970000     -72.20630000
H      -49.80040000     -32.40080000     -72.75300000
H      -49.06300000     -31.05290000     -71.74830000
C      -45.78260000     -34.46840000     -75.26800000
H      -46.56670000     -34.83800000     -76.00750000
H      -44.86710000     -34.29360000     -75.87390000
S      -48.72440000     -33.36190000     -70.86620000
S      -45.62950000     -35.85150000     -74.14850000
C      -47.48660000     -32.71820000     -69.71090000
H      -46.75720000     -32.13530000     -70.38000000
H      -47.99670000     -32.03610000     -69.01600000
C      -44.28290000     -35.29050000     -72.98960000
H      -43.74060000     -34.44950000     -73.39610000
H      -43.46500000     -36.09920000     -72.87530000
C      -44.85210000     -34.85550000     -71.62060000
H      -45.70070000     -34.18270000     -71.87670000
H      -45.32390000     -35.69970000     -71.05290000
C      -46.64130000     -33.84440000     -69.07710000
H      -46.46510000     -34.58510000     -69.78980000
H      -47.20460000     -34.29230000     -68.19810000
C      -45.20760000     -33.34240000     -68.63860000
C      -44.95380000     -32.56810000     -67.50980000
C      -44.02030000     -33.58690000     -69.42210000
H      -45.58440000     -32.24120000     -66.69380000
C      -42.84840000     -33.10350000     -68.83970000
C      -43.80000000     -34.30120000     -70.66330000
C      -42.42170000     -34.37580000     -70.93080000
S      -43.22490000     -32.26000000     -67.37420000
S      -41.35230000     -33.57960000     -69.78350000
H      -42.07550000     -35.10840000     -71.62960000
