40
Properties=species:S:1:pos:R:3 #=T CELL(abcABC):=T 1.889726e+02=T 90.00000=T Traj:=T positionsangstrom=T Step:=T 0=T Bead:=T pbc="F F F"
C      -44.70430000     -35.38070000     -74.27020000
C      -45.98550000     -34.77950000     -74.39730000
C      -46.09760000     -33.40340000     -74.46160000
C      -44.98360000     -32.56240000     -74.37180000
C      -43.73490000     -33.12940000     -74.25150000
C      -43.60190000     -34.53620000     -74.22340000
H      -44.53280000     -36.46320000     -74.01860000
H      -47.06390000     -33.02370000     -74.64130000
H      -42.75890000     -32.56230000     -74.29190000
H      -42.64480000     -34.93720000     -74.34320000
C      -45.22070000     -31.07420000     -74.17080000
H      -46.17710000     -30.93360000     -73.65650000
H      -45.48830000     -30.63130000     -75.17570000
C      -47.24390000     -35.59960000     -74.41450000
H      -47.72220000     -35.28510000     -75.31420000
H      -46.88300000     -36.62740000     -74.40770000
S      -43.98290000     -30.18860000     -73.11280000
S      -48.42070000     -35.15650000     -73.06490000
C      -43.84670000     -31.24760000     -71.60770000
H      -43.66460000     -32.28080000     -71.81430000
H      -42.88020000     -31.00090000     -71.15070000
C      -47.28890000     -35.23510000     -71.59130000
H      -46.72350000     -36.12300000     -71.78040000
H      -47.89150000     -35.54280000     -70.72120000
C      -46.48520000     -34.04770000     -71.29790000
H      -45.88220000     -33.78790000     -72.18730000
H      -47.22110000     -33.27240000     -71.16310000
C      -45.05560000     -31.07510000     -70.65810000
H      -45.97440000     -31.37430000     -71.14180000
H      -45.23360000     -29.98560000     -70.61060000
C      -44.87390000     -31.82830000     -69.33930000
C      -44.37000000     -31.17390000     -68.15300000
C      -45.18310000     -33.26040000     -69.15160000
H      -44.18840000     -30.16490000     -68.00330000
C      -44.66970000     -33.68070000     -67.92920000
C      -45.76270000     -34.33970000     -69.96590000
C      -45.69170000     -35.52640000     -69.25960000
S      -44.06200000     -32.36610000     -66.90170000
S      -44.92680000     -35.44980000     -67.67200000
H      -46.07710000     -36.46970000     -69.60590000
