40
Properties=species:S:1:pos:R:3 #=T CELL(abcABC):=T 1.889726e+02=T 90.00000=T Traj:=T positionsangstrom=T Step:=T 0=T Bead:=T pbc="F F F"
C      -45.39310000     -31.99890000     -74.69070000
C      -46.17070000     -33.16890000     -74.63790000
C      -47.32270000     -33.22880000     -73.90370000
C      -47.82170000     -32.07320000     -73.21340000
C      -47.03700000     -30.90280000     -73.33410000
C      -45.79530000     -30.94490000     -73.96660000
H      -44.52010000     -32.02760000     -75.27740000
H      -47.87320000     -34.16370000     -73.74370000
H      -47.35080000     -30.00370000     -72.74210000
H      -45.24210000     -30.03460000     -73.76000000
C      -49.07590000     -32.16250000     -72.43180000
H      -49.88830000     -32.65220000     -72.96800000
H      -49.46020000     -31.22390000     -72.13950000
C      -45.55630000     -34.41110000     -75.31080000
H      -46.15570000     -34.71150000     -76.11360000
H      -44.57630000     -34.20900000     -75.71260000
S      -48.87850000     -33.04070000     -70.80840000
S      -45.33990000     -35.86670000     -74.16070000
C      -47.21210000     -32.56250000     -70.07190000
H      -46.49250000     -32.19530000     -70.82090000
H      -47.40500000     -31.81880000     -69.31640000
C      -44.05620000     -35.29110000     -72.94600000
H      -43.37240000     -34.66180000     -73.51810000
H      -43.44570000     -36.18680000     -72.66610000
C      -44.65940000     -34.67560000     -71.72170000
H      -45.35320000     -33.82140000     -71.99200000
H      -45.25760000     -35.43080000     -71.25420000
C      -46.71200000     -33.73330000     -69.23810000
H      -46.74900000     -34.64710000     -69.82280000
H      -47.44220000     -33.78720000     -68.39560000
C      -45.33500000     -33.42190000     -68.73440000
C      -45.08820000     -33.02010000     -67.44850000
C      -44.04980000     -33.73530000     -69.40010000
H      -45.90800000     -32.68660000     -66.85410000
C      -42.92650000     -33.23550000     -68.72940000
C      -43.67360000     -34.16500000     -70.72910000
C      -42.33050000     -34.18760000     -70.95780000
S      -43.40510000     -32.62040000     -67.17760000
S      -41.44760000     -33.54030000     -69.53720000
H      -41.82270000     -34.65140000     -71.68000000
