40
Properties=species:S:1:pos:R:3 #=T CELL(abcABC):=T 1.889726e+02=T 90.00000=T Traj:=T positionsangstrom=T Step:=T 0=T Bead:=T pbc="F F F"
C      -45.06810000     -33.76600000     -67.70840000
C      -46.38200000     -33.84950000     -68.11540000
C      -46.97620000     -32.67510000     -68.58250000
C      -46.26880000     -31.48550000     -68.61140000
C      -44.90450000     -31.40960000     -68.22840000
C      -44.30980000     -32.52800000     -67.70730000
H      -44.53260000     -34.61970000     -67.37150000
H      -48.03840000     -32.64740000     -68.84340000
H      -44.25970000     -30.49840000     -68.29440000
H      -43.29500000     -32.52970000     -67.35810000
C      -46.90210000     -30.21150000     -69.12360000
H      -46.25580000     -29.30740000     -68.97200000
H      -47.83410000     -30.07770000     -68.64050000
C      -47.22330000     -35.17100000     -67.94360000
H      -46.70810000     -35.81740000     -67.25300000
H      -47.98700000     -34.81630000     -67.26160000
S      -47.22900000     -30.27630000     -71.01920000
S      -47.63420000     -35.99070000     -69.62920000
C      -45.78380000     -31.19750000     -71.68920000
H      -44.98040000     -30.42990000     -71.86530000
H      -45.46370000     -31.90100000     -70.92030000
C      -46.02940000     -35.97110000     -70.50870000
H      -45.84780000     -36.87230000     -71.13690000
H      -45.28150000     -35.89780000     -69.66390000
C      -45.89630000     -34.77090000     -71.47380000
H      -46.91090000     -34.80770000     -71.93000000
H      -45.89850000     -33.79980000     -70.96590000
C      -46.14170000     -31.92090000     -72.99890000
H      -46.64200000     -31.28230000     -73.62220000
H      -46.94900000     -32.57130000     -72.61540000
C      -44.92600000     -32.50700000     -73.59280000
C      -44.21310000     -31.87660000     -74.59900000
C      -44.37720000     -33.76060000     -73.29570000
H      -44.36490000     -30.86450000     -74.82950000
C      -43.22370000     -34.10870000     -74.04540000
C      -44.76180000     -34.85440000     -72.43710000
C      -43.88550000     -35.88320000     -72.56920000
S      -42.83070000     -32.84330000     -75.18140000
S      -42.58050000     -35.67770000     -73.79190000
H      -43.85100000     -36.83600000     -72.00300000
