40
Properties=species:S:1:pos:R:3 #=T CELL(abcABC):=T 1.889726e+02=T 90.00000=T Traj:=T positionsangstrom=T Step:=T 0=T Bead:=T pbc="F F F"
C      -45.43560000     -32.15720000     -74.77780000
C      -46.15630000     -33.38720000     -74.72100000
C      -47.20210000     -33.39200000     -73.81190000
C      -47.75850000     -32.25660000     -73.22550000
C      -47.02090000     -31.06310000     -73.34400000
C      -45.82860000     -31.03480000     -74.04500000
H      -44.60480000     -32.15670000     -75.43520000
H      -47.78310000     -34.35170000     -73.71760000
H      -47.40580000     -30.22580000     -72.79630000
H      -45.30340000     -30.12160000     -74.17060000
C      -49.06660000     -32.27410000     -72.48040000
H      -49.83270000     -32.85970000     -73.10150000
H      -49.60200000     -31.30780000     -72.52720000
C      -45.65640000     -34.56110000     -75.42370000
H      -46.41580000     -35.10870000     -75.95470000
H      -45.05320000     -34.22770000     -76.31200000
S      -48.94180000     -32.78130000     -70.71110000
S      -44.92310000     -35.80550000     -74.30370000
C      -47.16210000     -32.63510000     -70.32030000
H      -46.51860000     -32.78410000     -71.19810000
H      -46.90950000     -31.69130000     -69.95610000
C      -43.78330000     -35.10750000     -73.01050000
H      -43.12380000     -34.29280000     -73.41340000
H      -43.20830000     -35.99070000     -72.69710000
C      -44.56910000     -34.48300000     -71.81500000
H      -45.10100000     -33.56330000     -72.21270000
H      -45.36810000     -35.11330000     -71.43310000
C      -46.85470000     -33.77800000     -69.33100000
H      -47.13250000     -34.71550000     -69.91210000
H      -47.54890000     -33.78510000     -68.51810000
C      -45.47280000     -33.62690000     -68.79380000
C      -45.33890000     -33.13110000     -67.51540000
C      -44.10810000     -33.71010000     -69.38660000
H      -46.06540000     -32.70090000     -66.92890000
C      -43.06820000     -33.25470000     -68.60220000
C      -43.58020000     -34.00680000     -70.75530000
C      -42.26010000     -33.80640000     -70.84920000
S      -43.63440000     -32.86900000     -66.95380000
S      -41.52230000     -33.33800000     -69.33350000
H      -41.63900000     -33.74300000     -71.78690000
