40
Properties=species:S:1:pos:R:3 #=T CELL(abcABC):=T 1.889726e+02=T 90.00000=T Traj:=T positionsangstrom=T Step:=T 0=T Bead:=T pbc="F F F"
C      -45.36050000     -32.11470000     -74.83970000
C      -46.03140000     -33.35850000     -74.66720000
C      -47.17590000     -33.33830000     -73.89150000
C      -47.72450000     -32.16610000     -73.28920000
C      -47.05770000     -30.95480000     -73.52220000
C      -45.88400000     -30.94790000     -74.27200000
H      -44.46070000     -32.06070000     -75.43670000
H      -47.75820000     -34.22370000     -73.73040000
H      -47.46720000     -30.06830000     -73.02170000
H      -45.36590000     -30.04890000     -74.24220000
C      -49.05990000     -32.23550000     -72.58010000
H      -49.74870000     -32.70940000     -73.28640000
H      -49.58040000     -31.28110000     -72.13340000
C      -45.40590000     -34.51330000     -75.35440000
H      -46.05570000     -35.12830000     -76.03320000
H      -44.56400000     -34.18180000     -75.99020000
S      -48.96570000     -33.36580000     -71.11060000
S      -44.82410000     -35.76590000     -74.15350000
C      -47.57200000     -32.76140000     -70.09530000
H      -46.77970000     -32.29990000     -70.70790000
H      -47.90910000     -31.98390000     -69.38470000
C      -43.73140000     -34.91070000     -72.94550000
H      -43.00070000     -34.27750000     -73.46200000
H      -43.23660000     -35.79820000     -72.42680000
C      -44.52910000     -34.13030000     -71.87730000
H      -45.14050000     -33.39170000     -72.38690000
H      -45.35830000     -34.78430000     -71.52780000
C      -46.85260000     -33.96440000     -69.32820000
H      -46.78450000     -34.76590000     -70.04330000
H      -47.44830000     -34.36760000     -68.49430000
C      -45.45320000     -33.52110000     -68.75330000
C      -45.39030000     -33.24920000     -67.42470000
C      -44.14570000     -33.54790000     -69.39270000
H      -46.08910000     -33.38910000     -66.58950000
C      -43.11430000     -33.38730000     -68.48040000
C      -43.63840000     -33.77330000     -70.75970000
C      -42.22150000     -33.67300000     -70.75010000
S      -43.68670000     -32.83640000     -66.93180000
S      -41.54750000     -33.25200000     -69.15270000
H      -41.48730000     -33.73860000     -71.51630000
