40
Properties=species:S:1:pos:R:3 #=T CELL(abcABC):=T 1.889726e+02=T 90.00000=T Traj:=T positionsangstrom=T Step:=T 0=T Bead:=T pbc="F F F"
C      -44.55710000     -31.21020000     -74.10470000
C      -44.92040000     -32.49120000     -74.53570000
C      -46.28760000     -32.91640000     -74.36170000
C      -47.24080000     -32.17220000     -73.62780000
C      -46.80550000     -30.93660000     -73.16850000
C      -45.52780000     -30.46720000     -73.37750000
H      -43.54790000     -30.89680000     -74.24200000
H      -46.52020000     -33.87820000     -74.74380000
H      -47.41100000     -30.29180000     -72.60380000
H      -45.41380000     -29.41520000     -73.11640000
C      -48.66970000     -32.67120000     -73.46740000
H      -48.94610000     -33.13900000     -74.39800000
H      -49.28970000     -31.85350000     -73.16970000
C      -43.90130000     -33.37650000     -75.24730000
H      -44.11620000     -33.48190000     -76.34290000
H      -42.89910000     -32.98290000     -75.11430000
S      -48.75630000     -34.03550000     -72.15010000
S      -43.82060000     -35.01830000     -74.43770000
C      -48.07480000     -33.23940000     -70.65930000
H      -47.53400000     -32.27830000     -70.93030000
H      -48.97130000     -32.85470000     -70.07700000
C      -43.22030000     -34.65250000     -72.79090000
H      -42.52460000     -33.86910000     -72.76430000
H      -42.81700000     -35.52370000     -72.31050000
C      -44.34880000     -34.15870000     -71.80360000
H      -44.98030000     -33.37650000     -72.27690000
H      -45.12070000     -34.90630000     -71.80400000
C      -47.23200000     -34.27340000     -69.92170000
H      -46.86160000     -35.19050000     -70.47290000
H      -47.98570000     -34.73630000     -69.27420000
C      -46.14250000     -33.78830000     -69.00640000
C      -46.40360000     -33.36430000     -67.72470000
C      -44.71280000     -33.83330000     -69.24680000
H      -47.43960000     -33.22940000     -67.34240000
C      -44.01030000     -33.60770000     -68.09380000
C      -43.84430000     -33.85540000     -70.42210000
C      -42.53750000     -33.69350000     -70.04900000
S      -45.01130000     -33.35220000     -66.63540000
S      -42.28220000     -33.60120000     -68.31230000
H      -41.70110000     -33.47860000     -70.80760000
