40
Properties=species:S:1:pos:R:3 #=T CELL(abcABC):=T 1.889726e+02=T 90.00000=T Traj:=T positionsangstrom=T Step:=T 0=T Bead:=T pbc="F F F"
C      -45.08280000     -33.84110000     -67.69950000
C      -46.43110000     -33.92000000     -68.01870000
C      -47.05410000     -32.80640000     -68.53290000
C      -46.24240000     -31.64320000     -68.80510000
C      -44.91390000     -31.57110000     -68.51440000
C      -44.29700000     -32.66900000     -67.87200000
H      -44.50820000     -34.59070000     -67.05460000
H      -48.10500000     -32.82690000     -68.77470000
H      -44.34380000     -30.70650000     -68.86210000
H      -43.27330000     -32.60030000     -67.59650000
C      -46.89360000     -30.32450000     -69.33100000
H      -46.30890000     -29.45300000     -69.08670000
H      -47.91520000     -30.29080000     -68.81640000
C      -47.12620000     -35.23630000     -67.81210000
H      -46.61770000     -36.00010000     -67.24760000
H      -48.17690000     -34.94440000     -67.37570000
S      -47.25530000     -30.20520000     -71.09060000
S      -47.54360000     -36.00400000     -69.38240000
C      -45.84680000     -31.15650000     -71.78190000
H      -45.10260000     -30.41270000     -71.91750000
H      -45.44850000     -31.93200000     -71.15350000
C      -46.01540000     -36.10110000     -70.51120000
H      -46.04760000     -37.00950000     -71.09840000
H      -45.24240000     -36.17260000     -69.86100000
C      -45.98030000     -34.85250000     -71.41770000
H      -46.91570000     -34.85600000     -72.13480000
H      -46.02300000     -33.92330000     -70.84220000
C      -46.21850000     -31.76730000     -73.09570000
H      -46.39540000     -30.95330000     -73.82250000
H      -47.05320000     -32.51400000     -72.97570000
C      -44.96900000     -32.50050000     -73.70080000
C      -44.23110000     -31.80450000     -74.67910000
C      -44.44400000     -33.80320000     -73.45750000
H      -44.53460000     -30.91060000     -75.05580000
C      -43.22290000     -34.01530000     -74.01250000
C      -44.77750000     -34.85940000     -72.41080000
C      -43.83880000     -35.81360000     -72.44000000
S      -42.79040000     -32.66230000     -75.10060000
S      -42.54540000     -35.59820000     -73.65880000
H      -43.81100000     -36.80840000     -71.97160000
