40
Properties=species:S:1:pos:R:3 #=T CELL(abcABC):=T 1.889726e+02=T 90.00000=T Traj:=T positionsangstrom=T Step:=T 0=T Bead:=T pbc="F F F"
C      -45.09110000     -32.00510000     -74.65800000
C      -45.82360000     -33.13220000     -74.82450000
C      -47.12670000     -33.25650000     -74.27810000
C      -47.67380000     -32.21320000     -73.48370000
C      -46.95780000     -31.00280000     -73.38820000
C      -45.64940000     -30.92640000     -73.97930000
H      -44.10610000     -31.87840000     -75.12340000
H      -47.60180000     -34.24220000     -74.41250000
H      -47.27080000     -30.10490000     -72.79560000
H      -44.97340000     -30.07890000     -73.77450000
C      -48.93450000     -32.40050000     -72.62330000
H      -49.93110000     -32.76360000     -73.16110000
H      -49.08640000     -31.37520000     -72.21770000
C      -45.13350000     -34.36170000     -75.43820000
H      -45.71580000     -34.82150000     -76.22590000
H      -44.16900000     -34.10870000     -75.87410000
S      -48.70060000     -33.73760000     -71.37350000
S      -44.90320000     -35.69600000     -74.24560000
C      -47.48230000     -32.98330000     -70.19170000
H      -46.73690000     -32.44560000     -70.75480000
H      -48.00970000     -32.30080000     -69.55500000
C      -43.83550000     -34.93390000     -72.88410000
H      -43.41360000     -33.99990000     -73.32810000
H      -43.04580000     -35.57790000     -72.51450000
C      -44.62920000     -34.37560000     -71.65970000
H      -45.28520000     -33.56520000     -72.08860000
H      -45.35350000     -35.05730000     -71.22140000
C      -46.84680000     -34.05810000     -69.30880000
H      -46.69200000     -34.91000000     -70.02700000
H      -47.56670000     -34.24640000     -68.50470000
C      -45.53650000     -33.68610000     -68.62260000
C      -45.43170000     -33.27530000     -67.33090000
C      -44.28540000     -33.63230000     -69.30480000
H      -46.29130000     -33.20450000     -66.69030000
C      -43.32830000     -33.07690000     -68.44550000
C      -43.70820000     -33.83130000     -70.58320000
C      -42.42430000     -33.35720000     -70.71870000
S      -43.85200000     -32.96040000     -66.79160000
S      -41.77400000     -32.86090000     -69.14210000
H      -41.79820000     -33.18150000     -71.61150000
