40
Properties=species:S:1:pos:R:3 #=T CELL(abcABC):=T 1.889726e+02=T 90.00000=T Traj:=T positionsangstrom=T Step:=T 0=T Bead:=T pbc="F F F"
C      -46.39710000     -30.91420000     -69.17880000
C      -45.34230000     -30.41260000     -69.98260000
C      -45.56310000     -30.03220000     -71.28340000
C      -46.80700000     -30.27330000     -71.91720000
C      -47.83370000     -30.86470000     -71.16070000
C      -47.63690000     -31.13340000     -69.78160000
H      -46.40790000     -31.02580000     -68.07890000
H      -44.80920000     -29.81770000     -71.99780000
H      -48.69590000     -31.21760000     -71.62720000
H      -48.43450000     -31.63550000     -69.16620000
C      -46.82310000     -30.01560000     -73.38910000
H      -46.50960000     -29.01370000     -73.78800000
H      -47.86800000     -30.10990000     -73.75290000
C      -43.96750000     -30.24580000     -69.42610000
H      -43.64790000     -29.21440000     -69.58130000
H      -43.99650000     -30.30320000     -68.36330000
S      -45.63540000     -31.18750000     -74.36750000
S      -42.73720000     -31.39560000     -70.14720000
C      -46.26800000     -32.88470000     -73.84570000
H      -47.24770000     -32.91840000     -73.39130000
H      -46.10530000     -33.55140000     -74.73320000
C      -43.52190000     -33.03150000     -69.67070000
H      -44.58290000     -32.94030000     -69.84660000
H      -43.26460000     -33.34840000     -68.60420000
C      -42.96140000     -34.11020000     -70.64710000
H      -42.88910000     -33.68850000     -71.61340000
H      -41.91940000     -34.23730000     -70.33270000
C      -45.30440000     -33.50740000     -72.77840000
H      -45.08930000     -32.85300000     -71.98570000
H      -44.31430000     -33.61830000     -73.22270000
C      -45.86650000     -34.74390000     -72.15200000
C      -46.94010000     -35.52680000     -72.52670000
C      -45.03470000     -35.51610000     -71.17600000
H      -47.74360000     -35.14540000     -73.17460000
C      -45.50610000     -36.76000000     -70.94660000
C      -43.71080000     -35.37920000     -70.62540000
C      -43.35520000     -36.53240000     -70.00550000
S      -47.11630000     -37.01210000     -71.65920000
S      -44.48890000     -37.90950000     -70.11710000
H      -42.34120000     -36.75930000     -69.70000000
