40
Properties=species:S:1:pos:R:3 #=T CELL(abcABC):=T 1.889726e+02=T 90.00000=T Traj:=T positionsangstrom=T Step:=T 0=T Bead:=T pbc="F F F"
C      -46.43420000     -30.85570000     -69.25130000
C      -45.43390000     -30.32830000     -70.04230000
C      -45.60360000     -29.99620000     -71.38650000
C      -46.80780000     -30.29770000     -72.00950000
C      -47.86770000     -30.85810000     -71.20740000
C      -47.65980000     -31.17310000     -69.86830000
H      -46.33600000     -31.10960000     -68.19250000
H      -44.79450000     -29.60300000     -72.03170000
H      -48.79920000     -30.97700000     -71.68140000
H      -48.43080000     -31.62170000     -69.31850000
C      -46.95750000     -30.21510000     -73.52760000
H      -46.94530000     -29.23850000     -73.94470000
H      -47.90120000     -30.69930000     -73.74990000
C      -44.12360000     -30.23580000     -69.37930000
H      -43.72300000     -29.23900000     -69.43380000
H      -44.27840000     -30.55300000     -68.31230000
S      -45.51820000     -31.17830000     -74.23270000
S      -42.88070000     -31.39750000     -70.11870000
C      -46.07120000     -32.88870000     -73.82540000
H      -47.10530000     -32.83530000     -73.85620000
H      -45.92390000     -33.58650000     -74.68600000
C      -43.56330000     -33.06960000     -69.83700000
H      -44.55800000     -33.01990000     -70.18660000
H      -43.58580000     -33.30850000     -68.76600000
C      -42.77960000     -34.16800000     -70.63060000
H      -42.45930000     -33.76710000     -71.60560000
H      -41.88410000     -34.54030000     -70.15840000
C      -45.27120000     -33.40870000     -72.64210000
H      -45.44830000     -32.66760000     -71.88920000
H      -44.14390000     -33.49720000     -72.87350000
C      -45.77880000     -34.74360000     -72.06220000
C      -47.03770000     -35.25740000     -72.34890000
C      -44.92050000     -35.66400000     -71.36740000
H      -47.98820000     -34.88060000     -72.77440000
C      -45.47620000     -36.91400000     -71.08240000
C      -43.66220000     -35.46930000     -70.74580000
C      -43.25930000     -36.57140000     -70.01780000
S      -47.15320000     -36.92040000     -71.65220000
S      -44.45060000     -37.90880000     -70.01100000
H      -42.33560000     -36.67080000     -69.48900000
