40
Properties=species:S:1:pos:R:3 #=T CELL(abcABC):=T 1.889726e+02=T 90.00000=T Traj:=T positionsangstrom=T Step:=T 0=T Bead:=T pbc="F F F"
C      -44.47850000     -31.11010000     -73.95150000
C      -44.77880000     -32.37290000     -74.38630000
C      -46.17640000     -32.68710000     -74.41460000
C      -47.18020000     -31.89530000     -73.79210000
C      -46.81770000     -30.70050000     -73.24740000
C      -45.48660000     -30.26550000     -73.40470000
H      -43.44570000     -30.79360000     -73.99090000
H      -46.45580000     -33.72540000     -74.57880000
H      -47.46260000     -29.91270000     -72.86960000
H      -45.28600000     -29.21410000     -73.19680000
C      -48.63910000     -32.33810000     -73.70060000
H      -48.89540000     -32.95440000     -74.60420000
H      -49.36230000     -31.47460000     -73.62630000
C      -43.73770000     -33.25800000     -74.97980000
H      -43.91380000     -33.53700000     -76.06060000
H      -42.78460000     -32.73760000     -74.97450000
S      -48.87420000     -33.63210000     -72.31570000
S      -43.47480000     -35.00540000     -74.26780000
C      -47.56070000     -33.33960000     -71.02840000
H      -46.62730000     -32.96130000     -71.50500000
H      -47.82600000     -32.50710000     -70.40770000
C      -42.90840000     -34.76240000     -72.54640000
H      -42.57670000     -33.71280000     -72.44400000
H      -42.12580000     -35.52320000     -72.30770000
C      -43.95910000     -35.02670000     -71.54320000
H      -44.91640000     -34.65520000     -71.99330000
H      -44.09820000     -36.13570000     -71.33890000
C      -47.15750000     -34.64200000     -70.28290000
H      -46.77040000     -35.42900000     -70.95700000
H      -48.18280000     -34.99830000     -70.04000000
C      -46.21510000     -34.34330000     -69.14750000
C      -46.67590000     -33.97480000     -67.89600000
C      -44.84270000     -34.12650000     -69.20510000
H      -47.70730000     -34.04670000     -67.56820000
C      -44.29390000     -33.43760000     -68.10550000
C      -43.81390000     -34.32790000     -70.21250000
C      -42.55810000     -33.91180000     -69.75630000
S      -45.50660000     -33.23980000     -66.83690000
S      -42.57610000     -33.35930000     -68.08930000
H      -41.57540000     -33.98640000     -70.24370000
