40
Properties=species:S:1:pos:R:3 #=T CELL(abcABC):=T 1.889726e+02=T 90.00000=T Traj:=T positionsangstrom=T Step:=T 0=T Bead:=T pbc="F F F"
C      -44.39220000     -31.29530000     -73.76870000
C      -44.80050000     -32.55940000     -74.23910000
C      -46.12280000     -32.89240000     -74.08960000
C      -47.08910000     -31.89940000     -73.64700000
C      -46.65520000     -30.64550000     -73.39580000
C      -45.33750000     -30.28090000     -73.47350000
H      -43.42860000     -30.94360000     -73.79170000
H      -46.51930000     -33.74170000     -74.60250000
H      -47.33810000     -29.84900000     -73.01230000
H      -44.97880000     -29.22250000     -73.04920000
C      -48.59490000     -32.30080000     -73.44790000
H      -49.05610000     -32.44530000     -74.39290000
H      -49.17160000     -31.53780000     -72.97550000
C      -43.73030000     -33.29140000     -75.09500000
H      -44.15830000     -33.64420000     -76.00990000
H      -42.88850000     -32.63790000     -75.26240000
S      -48.79050000     -33.82890000     -72.47220000
S      -43.26670000     -34.95950000     -74.37990000
C      -47.55390000     -33.34600000     -71.06630000
H      -46.75280000     -32.94990000     -71.68180000
H      -47.92640000     -32.51470000     -70.42330000
C      -42.92560000     -34.50460000     -72.59100000
H      -42.59830000     -33.46300000     -72.48280000
H      -42.11550000     -35.19840000     -72.31190000
C      -44.11880000     -34.72210000     -71.73190000
H      -44.97680000     -34.12400000     -72.08690000
H      -44.38620000     -35.72670000     -71.80730000
C      -47.35900000     -34.60360000     -70.19380000
H      -46.93250000     -35.44270000     -70.80050000
H      -48.20980000     -34.86190000     -69.65110000
C      -46.37560000     -34.23910000     -69.10500000
C      -46.88020000     -33.68960000     -67.93830000
C      -44.91730000     -34.04960000     -69.20810000
H      -47.95410000     -33.59840000     -67.69220000
C      -44.34490000     -33.59980000     -68.00660000
C      -43.88020000     -34.26580000     -70.28700000
C      -42.62540000     -34.02410000     -69.75940000
S      -45.56910000     -33.28350000     -66.78310000
S      -42.60960000     -33.35970000     -68.08910000
H      -41.80900000     -33.90000000     -70.48390000
