40
Properties=species:S:1:pos:R:3 #=T CELL(abcABC):=T 1.889726e+02=T 90.00000=T Traj:=T positionsangstrom=T Step:=T 0=T Bead:=T pbc="F F F"
C      -44.02180000     -31.33120000     -73.70090000
C      -44.38000000     -32.42750000     -74.44790000
C      -45.76740000     -32.79250000     -74.59200000
C      -46.72970000     -32.00980000     -73.94670000
C      -46.34600000     -30.80900000     -73.36740000
C      -45.04010000     -30.46180000     -73.15120000
H      -42.95250000     -31.01150000     -73.53830000
H      -46.08050000     -33.68850000     -75.05790000
H      -47.09240000     -30.10780000     -73.08670000
H      -44.84180000     -29.49370000     -72.67860000
C      -48.12050000     -32.41170000     -74.01090000
H      -48.62040000     -32.88090000     -74.86880000
H      -48.74560000     -31.51870000     -73.68170000
C      -43.42900000     -33.41750000     -75.08140000
H      -43.60220000     -33.55600000     -76.19230000
H      -42.42930000     -32.91330000     -75.03840000
S      -48.40810000     -33.85110000     -72.74770000
S      -43.46370000     -35.02760000     -74.21930000
C      -47.64400000     -33.21890000     -71.25280000
H      -46.62770000     -32.75740000     -71.36050000
H      -48.29280000     -32.45770000     -70.84380000
C      -43.09320000     -34.60570000     -72.47550000
H      -42.70440000     -33.57550000     -72.57180000
H      -42.14690000     -35.27790000     -72.23610000
C      -44.36120000     -34.68000000     -71.51320000
H      -45.27920000     -34.18110000     -71.94400000
H      -44.51540000     -35.73130000     -71.31940000
C      -47.57760000     -34.34100000     -70.18990000
H      -47.22060000     -35.32520000     -70.59740000
H      -48.57000000     -34.45980000     -69.76530000
C      -46.61920000     -34.01410000     -69.10960000
C      -47.00160000     -33.56850000     -67.88160000
C      -45.15660000     -33.94200000     -69.15420000
H      -48.01290000     -33.54560000     -67.61520000
C      -44.64440000     -33.52020000     -67.90550000
C      -44.08800000     -34.14600000     -70.10460000
C      -42.83840000     -33.94810000     -69.59340000
S      -45.79480000     -33.25630000     -66.66410000
S      -42.93350000     -33.48700000     -67.92990000
H      -41.94070000     -33.98530000     -70.13340000
