40
Properties=species:S:1:pos:R:3 #=T CELL(abcABC):=T 1.889726e+02=T 90.00000=T Traj:=T positionsangstrom=T Step:=T 0=T Bead:=T pbc="F F F"
C      -46.46540000     -30.45880000     -69.61980000
C      -45.35550000     -30.19530000     -70.41300000
C      -45.54900000     -30.15520000     -71.81120000
C      -46.79060000     -30.38020000     -72.43760000
C      -47.92650000     -30.54100000     -71.59360000
C      -47.71300000     -30.68880000     -70.23190000
H      -46.26770000     -30.67780000     -68.58110000
H      -44.67980000     -29.99050000     -72.48850000
H      -48.90920000     -30.70560000     -72.05960000
H      -48.57150000     -30.88720000     -69.62480000
C      -46.84030000     -30.46020000     -73.98140000
H      -46.29640000     -29.58630000     -74.34250000
H      -47.86320000     -30.53450000     -74.28470000
C      -44.02960000     -29.79480000     -69.73510000
H      -43.59180000     -29.00880000     -70.34200000
H      -44.19920000     -29.43680000     -68.71560000
S      -45.81780000     -31.88010000     -74.77400000
S      -42.71210000     -31.05370000     -69.66030000
C      -46.39100000     -33.40240000     -73.91140000
H      -47.41210000     -33.44520000     -73.64420000
H      -46.16110000     -34.30590000     -74.56420000
C      -43.70450000     -32.60440000     -69.56050000
H      -44.66710000     -32.36750000     -70.01800000
H      -44.02430000     -32.80120000     -68.52960000
C      -43.10230000     -33.78200000     -70.31860000
H      -42.89940000     -33.48940000     -71.35170000
H      -42.07010000     -34.02310000     -69.89880000
C      -45.49480000     -33.70960000     -72.66600000
H      -45.67770000     -32.98240000     -71.90610000
H      -44.41410000     -33.61590000     -72.88870000
C      -45.71650000     -35.09760000     -72.19590000
C      -46.58290000     -36.06680000     -72.74900000
C      -44.90160000     -35.61630000     -71.13350000
H      -47.27780000     -35.97460000     -73.53760000
C      -45.36190000     -36.89570000     -70.70300000
C      -43.94230000     -35.04850000     -70.21240000
C      -43.65230000     -35.92280000     -69.17890000
S      -46.61850000     -37.55440000     -71.79410000
S      -44.51360000     -37.46750000     -69.25860000
H      -42.81970000     -35.88410000     -68.40910000
