40
Properties=species:S:1:pos:R:3 #=T CELL(abcABC):=T 1.889726e+02=T 90.00000=T Traj:=T positionsangstrom=T Step:=T 0=T Bead:=T pbc="F F F"
C      -46.65600000     -30.17130000     -69.91840000
C      -45.43510000     -30.06660000     -70.61490000
C      -45.50710000     -30.25030000     -71.99800000
C      -46.72760000     -30.63600000     -72.58500000
C      -47.91860000     -30.76190000     -71.83880000
C      -47.80310000     -30.52260000     -70.49710000
H      -46.70260000     -30.12600000     -68.81300000
H      -44.67230000     -29.99250000     -72.55760000
H      -48.85280000     -31.05350000     -72.24930000
H      -48.65420000     -30.61470000     -69.81780000
C      -46.80750000     -30.78570000     -74.11220000
H      -46.59970000     -29.79730000     -74.53800000
H      -47.81330000     -31.06030000     -74.43450000
C      -44.12260000     -29.73640000     -69.89280000
H      -43.68720000     -28.77210000     -70.05070000
H      -44.41620000     -29.79940000     -68.84140000
S      -45.56730000     -31.94220000     -74.82600000
S      -42.76170000     -31.01680000     -70.16200000
C      -45.99860000     -33.58940000     -74.08960000
H      -46.95530000     -33.42330000     -73.61880000
H      -46.07170000     -34.36650000     -74.87350000
C      -43.74450000     -32.58950000     -69.83510000
H      -44.61300000     -32.53740000     -70.50360000
H      -44.19240000     -32.43650000     -68.81620000
C      -42.93740000     -33.88060000     -70.07260000
H      -42.46310000     -33.79240000     -71.13100000
H      -42.12520000     -34.01070000     -69.40610000
C      -45.03740000     -33.93320000     -72.97080000
H      -44.91660000     -33.03190000     -72.33800000
H      -44.02790000     -34.10920000     -73.32680000
C      -45.55030000     -35.14500000     -72.09840000
C      -46.58030000     -35.99290000     -72.39890000
C      -44.85090000     -35.65190000     -70.92670000
H      -47.29040000     -35.95300000     -73.24540000
C      -45.46770000     -36.77050000     -70.40940000
C      -43.80910000     -35.14260000     -70.02400000
C      -43.71470000     -35.96500000     -68.93960000
S      -46.89430000     -37.31380000     -71.23020000
S      -44.78450000     -37.36400000     -68.92810000
H      -42.90170000     -35.80320000     -68.29190000
