40
Properties=species:S:1:pos:R:3 #=T CELL(abcABC):=T 1.889726e+02=T 90.00000=T Traj:=T positionsangstrom=T Step:=T 0=T Bead:=T pbc="F F F"
C      -46.41030000     -33.64780000     -75.69040000
C      -46.12000000     -34.74100000     -74.77470000
C      -47.04880000     -35.05340000     -73.75690000
C      -48.20700000     -34.28890000     -73.57270000
C      -48.43050000     -33.17260000     -74.38020000
C      -47.62590000     -32.93720000     -75.46760000
H      -45.70330000     -33.53560000     -76.55840000
H      -46.79780000     -35.93780000     -73.11330000
H      -49.22110000     -32.49690000     -74.12310000
H      -47.98020000     -32.15970000     -76.15200000
C      -49.07580000     -34.41210000     -72.34210000
H      -48.82480000     -35.24210000     -71.68180000
H      -50.17480000     -34.60980000     -72.52770000
C      -44.79510000     -35.48210000     -74.87370000
H      -44.79830000     -36.46660000     -74.47950000
H      -44.50730000     -35.60040000     -75.91990000
S      -48.78070000     -32.97900000     -71.25760000
S      -43.32560000     -34.62160000     -74.18080000
C      -46.97980000     -32.97240000     -70.76230000
H      -46.84120000     -33.64060000     -69.95370000
H      -46.34700000     -33.48990000     -71.53260000
C      -43.52840000     -34.66720000     -72.41110000
H      -42.87740000     -35.31890000     -71.84420000
H      -44.52630000     -35.11160000     -72.24970000
C      -43.39930000     -33.31590000     -71.76620000
H      -42.41030000     -33.01030000     -72.09660000
H      -44.14830000     -32.65680000     -72.17600000
C      -46.31490000     -31.62140000     -70.43900000
H      -47.07670000     -30.80680000     -70.15800000
H      -45.81110000     -31.32440000     -71.34780000
C      -45.31590000     -31.83580000     -69.28760000
C      -45.66280000     -31.41570000     -67.99520000
C      -44.07180000     -32.55800000     -69.32290000
H      -46.53170000     -30.89020000     -67.71960000
C      -43.44700000     -32.58290000     -68.05320000
C      -43.29450000     -33.34450000     -70.28250000
C      -42.26070000     -33.94590000     -69.65880000
S      -44.34860000     -31.65980000     -66.90230000
S      -42.02050000     -33.65020000     -67.92550000
H      -41.56500000     -34.76680000     -70.06550000
