40
Properties=species:S:1:pos:R:3 #=T CELL(abcABC):=T 1.889726e+02=T 90.00000=T Traj:=T positionsangstrom=T Step:=T 0=T Bead:=T pbc="F F F"
C      -46.44710000     -30.33750000     -70.33640000
C      -45.38310000     -30.16760000     -71.20340000
C      -45.50680000     -30.39290000     -72.63500000
C      -46.71520000     -30.93840000     -73.14330000
C      -47.80830000     -31.15740000     -72.25060000
C      -47.66570000     -30.87240000     -70.87290000
H      -46.29960000     -30.20270000     -69.24370000
H      -44.68230000     -30.10410000     -73.33660000
H      -48.70140000     -31.50440000     -72.68630000
H      -48.55080000     -31.01900000     -70.18810000
C      -46.85920000     -31.14450000     -74.55520000
H      -46.33940000     -30.42910000     -75.23280000
H      -47.91040000     -31.09770000     -74.95930000
C      -44.10280000     -29.60970000     -70.57280000
H      -43.77910000     -28.78290000     -71.16020000
H      -44.27510000     -29.22290000     -69.55850000
S      -46.11680000     -32.87920000     -75.20890000
S      -42.65360000     -30.75730000     -70.52060000
C      -46.44620000     -34.13370000     -73.88290000
H      -47.56280000     -34.03120000     -73.79360000
H      -46.22220000     -35.04060000     -74.44040000
C      -43.58330000     -32.25700000     -69.70930000
H      -44.65800000     -32.18260000     -70.01730000
H      -43.51750000     -32.30440000     -68.63010000
C      -43.03230000     -33.55050000     -70.31630000
H      -43.01260000     -33.44350000     -71.42740000
H      -41.98230000     -33.67140000     -70.10250000
C      -45.47220000     -34.01610000     -72.74290000
H      -45.48320000     -33.07340000     -72.23900000
H      -44.46380000     -34.17780000     -73.19070000
C      -45.64480000     -35.09410000     -71.69230000
C      -46.69870000     -35.97650000     -71.73550000
C      -44.84380000     -35.41520000     -70.51010000
H      -47.55780000     -35.79600000     -72.32570000
C      -45.37690000     -36.46290000     -69.75800000
C      -43.68970000     -34.81750000     -69.90040000
C      -43.29100000     -35.52170000     -68.76090000
S      -46.83610000     -37.04710000     -70.41740000
S      -44.41800000     -36.83360000     -68.37690000
H      -42.63020000     -35.12920000     -67.96540000
