40
Properties=species:S:1:pos:R:3 #=T CELL(abcABC):=T 1.889726e+02=T 90.00000=T Traj:=T positionsangstrom=T Step:=T 0=T Bead:=T pbc="F F F"
C      -44.49260000     -33.95020000     -75.37400000
C      -44.15070000     -34.86300000     -74.36510000
C      -43.17060000     -34.44030000     -73.39510000
C      -42.63850000     -33.17750000     -73.42850000
C      -43.05290000     -32.28890000     -74.40090000
C      -44.02640000     -32.57200000     -75.31280000
H      -45.32570000     -34.26800000     -75.98110000
H      -42.81300000     -35.22040000     -72.70280000
H      -42.69580000     -31.29120000     -74.36370000
H      -44.41720000     -31.95920000     -76.06140000
C      -41.68710000     -32.79570000     -72.32160000
H      -40.62330000     -32.80920000     -72.65550000
H      -41.77620000     -33.50890000     -71.52060000
C      -44.73180000     -36.33760000     -74.27230000
H      -44.61450000     -36.87080000     -75.27940000
H      -44.10870000     -36.87740000     -73.46440000
S      -42.02690000     -31.05800000     -71.75420000
S      -46.60540000     -36.23210000     -73.89820000
C      -43.04090000     -31.36210000     -70.22230000
H      -42.41930000     -32.01210000     -69.53450000
H      -43.15130000     -30.39270000     -69.72860000
C      -46.54230000     -35.68540000     -72.03820000
H      -45.52180000     -35.82250000     -71.72740000
H      -47.20680000     -36.25470000     -71.44170000
C      -46.84990000     -34.17360000     -71.93690000
H      -45.91880000     -33.62550000     -72.15170000
H      -47.57800000     -33.79750000     -72.62440000
C      -44.42700000     -32.10760000     -70.41470000
H      -44.04830000     -33.16030000     -70.45290000
H      -44.94360000     -31.84300000     -71.30630000
C      -45.47920000     -32.06770000     -69.33640000
C      -45.29900000     -31.54950000     -68.10840000
C      -46.70620000     -32.85920000     -69.56600000
H      -44.55130000     -30.83360000     -67.70120000
C      -47.38760000     -32.85680000     -68.34760000
C      -47.25440000     -33.85780000     -70.49690000
C      -48.34080000     -34.46170000     -69.94890000
S      -46.66450000     -31.95800000     -67.01730000
S      -48.73940000     -33.92490000     -68.32020000
H      -48.97940000     -35.18040000     -70.45930000
