40
Properties=species:S:1:pos:R:3 #=T CELL(abcABC):=T 1.889726e+02=T 90.00000=T Traj:=T positionsangstrom=T Step:=T 0=T Bead:=T pbc="F F F"
C      -44.63560000     -33.86880000     -75.34640000
C      -44.18270000     -34.82710000     -74.34200000
C      -43.32400000     -34.32200000     -73.36300000
C      -42.68930000     -33.02700000     -73.49260000
C      -42.99540000     -32.27460000     -74.54920000
C      -44.00690000     -32.64400000     -75.48120000
H      -45.30630000     -34.30180000     -76.11340000
H      -43.04710000     -34.94730000     -72.48810000
H      -42.43490000     -31.35070000     -74.66300000
H      -44.16810000     -32.04330000     -76.37920000
C      -41.67790000     -32.66460000     -72.46780000
H      -40.70430000     -32.43190000     -72.87990000
H      -41.65530000     -33.40310000     -71.68760000
C      -44.74070000     -36.15960000     -74.38500000
H      -44.87520000     -36.66810000     -75.26700000
H      -44.17230000     -36.78250000     -73.76680000
S      -41.97940000     -31.01710000     -71.48110000
S      -46.51690000     -36.28890000     -73.74360000
C      -43.25520000     -31.30770000     -70.15990000
H      -42.83820000     -31.61000000     -69.24930000
H      -43.59280000     -30.26790000     -69.96170000
C      -46.43340000     -35.73480000     -72.01170000
H      -45.46660000     -36.26270000     -71.52750000
H      -47.24920000     -36.21030000     -71.53240000
C      -46.63530000     -34.20630000     -71.78250000
H      -45.66060000     -33.71900000     -71.81490000
H      -47.28510000     -33.92240000     -72.61300000
C      -44.44240000     -32.17520000     -70.53180000
H      -44.17060000     -33.09680000     -71.00880000
H      -45.00390000     -31.75530000     -71.40940000
C      -45.36490000     -32.35270000     -69.35510000
C      -45.30390000     -31.52970000     -68.28670000
C      -46.47820000     -33.31860000     -69.33740000
H      -44.65500000     -30.76880000     -67.86930000
C      -47.33930000     -33.12020000     -68.24900000
C      -47.25520000     -33.94450000     -70.43540000
C      -48.48690000     -34.34490000     -70.05040000
S      -46.63890000     -31.86590000     -67.16410000
S      -48.88530000     -33.89030000     -68.41780000
H      -49.27580000     -34.75870000     -70.69670000
