40
Properties=species:S:1:pos:R:3 #=T CELL(abcABC):=T 1.889726e+02=T 90.00000=T Traj:=T positionsangstrom=T Step:=T 0=T Bead:=T pbc="F F F"
C      -46.29540000     -34.36240000     -75.69690000
C      -45.92620000     -34.95960000     -74.49940000
C      -46.85050000     -34.94630000     -73.40850000
C      -48.06500000     -34.19250000     -73.53180000
C      -48.37130000     -33.45580000     -74.75100000
C      -47.54710000     -33.63920000     -75.83550000
H      -45.56710000     -34.28180000     -76.56210000
H      -46.64760000     -35.63920000     -72.58480000
H      -49.29970000     -32.89910000     -74.76840000
H      -47.89040000     -33.24760000     -76.80170000
C      -49.03380000     -34.05240000     -72.44210000
H      -48.79860000     -34.74630000     -71.62350000
H      -50.07780000     -34.12000000     -72.83870000
C      -44.59340000     -35.52290000     -74.22410000
H      -44.47830000     -35.81330000     -73.17110000
H      -44.30740000     -36.27650000     -74.99730000
S      -48.99520000     -32.38920000     -71.55140000
S      -43.28450000     -34.18140000     -74.41970000
C      -47.65180000     -32.78660000     -70.24180000
H      -48.17080000     -32.60480000     -69.26180000
H      -47.29740000     -33.83210000     -70.26310000
C      -42.61680000     -33.96470000     -72.64300000
H      -41.89390000     -33.21280000     -72.79180000
H      -42.01720000     -34.86210000     -72.35390000
C      -43.79260000     -33.42860000     -71.73800000
H      -44.01230000     -32.45910000     -72.09110000
H      -44.66080000     -34.08510000     -71.91820000
C      -46.41370000     -31.80720000     -70.30380000
H      -46.73730000     -30.79290000     -70.18480000
H      -45.95230000     -32.03650000     -71.21620000
C      -45.49780000     -32.09530000     -69.12280000
C      -45.57130000     -31.35540000     -67.93010000
C      -44.31030000     -32.97110000     -69.18040000
H      -46.18180000     -30.46620000     -67.78130000
C      -43.57440000     -33.03820000     -67.98280000
C      -43.43300000     -33.49840000     -70.22240000
C      -42.17980000     -33.96420000     -69.81450000
S      -44.29120000     -31.85710000     -66.75280000
S      -42.02460000     -33.75430000     -68.08370000
H      -41.48130000     -34.49140000     -70.38640000
