40
Properties=species:S:1:pos:R:3 #=T CELL(abcABC):=T 1.889726e+02=T 90.00000=T Traj:=T positionsangstrom=T Step:=T 0=T Bead:=T pbc="F F F"
C      -45.95540000     -33.90640000     -75.93240000
C      -45.71520000     -34.44770000     -74.60640000
C      -46.79700000     -34.39100000     -73.69130000
C      -48.01860000     -33.89900000     -74.08320000
C      -48.33110000     -33.44450000     -75.37260000
C      -47.23700000     -33.42820000     -76.25440000
H      -45.13080000     -33.86960000     -76.61650000
H      -46.66340000     -34.60310000     -72.57110000
H      -49.34750000     -33.09370000     -75.58400000
H      -47.39290000     -33.04050000     -77.27690000
C      -49.12990000     -33.88820000     -73.03910000
H      -49.16990000     -34.77600000     -72.50960000
H      -50.09300000     -33.59860000     -73.44220000
C      -44.49990000     -35.18670000     -74.13340000
H      -44.65670000     -35.50670000     -73.11480000
H      -44.35360000     -36.01930000     -74.80460000
S      -48.86920000     -32.53370000     -71.74210000
S      -43.02450000     -34.08220000     -74.23960000
C      -47.68480000     -33.22100000     -70.46210000
H      -48.33320000     -33.25020000     -69.63610000
H      -47.43810000     -34.26770000     -70.68270000
C      -42.55460000     -33.95240000     -72.42130000
H      -41.69560000     -33.21680000     -72.32550000
H      -42.11040000     -34.86770000     -72.14800000
C      -43.64850000     -33.48110000     -71.56390000
H      -44.02440000     -32.40930000     -71.90440000
H      -44.47570000     -34.07070000     -71.60500000
C      -46.50050000     -32.17810000     -70.22270000
H      -46.99260000     -31.24070000     -70.14900000
H      -45.97990000     -32.29430000     -71.15970000
C      -45.63430000     -32.40270000     -69.03360000
C      -46.10240000     -32.11660000     -67.78490000
C      -44.26180000     -32.92070000     -69.07850000
H      -47.05670000     -31.61510000     -67.51030000
C      -43.73110000     -32.98890000     -67.77850000
C      -43.20580000     -33.34550000     -70.05390000
C      -42.02880000     -33.64820000     -69.43580000
S      -44.88030000     -32.49350000     -66.54730000
S      -42.06090000     -33.53150000     -67.71380000
H      -41.13210000     -33.75210000     -70.08940000
