40
Properties=species:S:1:pos:R:3 #=T CELL(abcABC):=T 1.889726e+02=T 90.00000=T Traj:=T positionsangstrom=T Step:=T 0=T Bead:=T pbc="F F F"
C      -47.17440000     -33.63530000     -73.38640000
C      -46.26470000     -33.08950000     -74.29710000
C      -45.84390000     -31.75870000     -74.04050000
C      -46.26380000     -31.03400000     -72.96000000
C      -47.28730000     -31.52340000     -72.13750000
C      -47.70850000     -32.83360000     -72.34760000
H      -47.42230000     -34.69380000     -73.46550000
H      -45.07380000     -31.30330000     -74.70180000
H      -47.59820000     -30.87000000     -71.29300000
H      -48.45540000     -33.23430000     -71.67180000
C      -45.76280000     -29.63950000     -72.63860000
H      -46.59300000     -29.08950000     -72.14400000
H      -45.44950000     -29.08060000     -73.53660000
C      -45.67360000     -33.99220000     -75.34970000
H      -46.35450000     -34.77290000     -75.75900000
H      -45.34130000     -33.42760000     -76.20620000
S      -44.11910000     -29.74470000     -71.71390000
S      -44.20060000     -35.02660000     -74.88840000
C      -44.61010000     -30.81930000     -70.30980000
H      -44.76790000     -30.25290000     -69.31600000
H      -45.53940000     -31.29350000     -70.53270000
C      -44.40680000     -35.82150000     -73.19150000
H      -43.60940000     -36.62490000     -73.13620000
H      -45.39680000     -36.33830000     -73.08170000
C      -44.27470000     -34.75700000     -72.04140000
H      -43.26640000     -34.49760000     -72.00100000
H      -44.89330000     -33.95890000     -72.34900000
C      -43.65210000     -32.00900000     -70.09130000
H      -42.72130000     -31.54470000     -69.62160000
H      -43.24080000     -32.44610000     -71.06470000
C      -44.36430000     -32.96350000     -69.19580000
C      -44.81130000     -32.58580000     -67.95370000
C      -44.85270000     -34.31100000     -69.51910000
H      -44.58340000     -31.67630000     -67.37910000
C      -45.52790000     -34.93230000     -68.48430000
C      -44.86610000     -35.16570000     -70.71740000
C      -45.49710000     -36.35800000     -70.51710000
S      -45.48470000     -33.91270000     -67.01860000
S      -46.17430000     -36.47460000     -68.93000000
H      -45.50290000     -37.23140000     -71.18500000
