40
Properties=species:S:1:pos:R:3 #=T CELL(abcABC):=T 1.889726e+02=T 90.00000=T Traj:=T positionsangstrom=T Step:=T 0=T Bead:=T pbc="F F F"
C      -47.31270000     -33.65520000     -73.56320000
C      -46.18440000     -33.17870000     -74.23650000
C      -45.60510000     -31.93780000     -73.82630000
C      -46.21330000     -31.13450000     -72.85490000
C      -47.36820000     -31.60810000     -72.19740000
C      -47.81620000     -32.94500000     -72.40360000
H      -47.82060000     -34.54190000     -73.94490000
H      -44.83240000     -31.47750000     -74.40690000
H      -47.98850000     -30.95940000     -71.56790000
H      -48.66180000     -33.34680000     -71.97070000
C      -45.72340000     -29.71260000     -72.73430000
H      -46.43150000     -29.10390000     -72.18970000
H      -45.56900000     -29.24700000     -73.68030000
C      -45.67580000     -33.87130000     -75.50640000
H      -46.47750000     -34.48690000     -75.90720000
H      -45.42820000     -33.14290000     -76.29930000
S      -44.07930000     -29.78220000     -71.87860000
S      -44.14320000     -34.96640000     -74.93120000
C      -44.52720000     -30.64340000     -70.24480000
H      -44.37930000     -29.99370000     -69.37280000
H      -45.54130000     -30.72880000     -70.34930000
C      -44.64980000     -35.64190000     -73.28980000
H      -44.02430000     -36.49050000     -73.15570000
H      -45.66870000     -36.00400000     -73.42320000
C      -44.40020000     -34.68070000     -72.05500000
H      -43.26780000     -34.71100000     -71.96640000
H      -44.66040000     -33.57680000     -72.40740000
C      -43.79640000     -32.01070000     -70.13900000
H      -42.73880000     -31.91820000     -69.97640000
H      -43.92550000     -32.42990000     -71.15080000
C      -44.34730000     -32.98840000     -69.13920000
C      -44.54750000     -32.67060000     -67.79930000
C      -44.90220000     -34.27740000     -69.50430000
H      -44.06220000     -31.88910000     -67.14350000
C      -45.54680000     -34.90500000     -68.43100000
C      -44.99820000     -35.09680000     -70.70210000
C      -45.58320000     -36.32230000     -70.45850000
S      -45.49550000     -33.92460000     -66.92150000
S      -46.07430000     -36.50650000     -68.80230000
H      -46.02440000     -37.00890000     -71.19680000
