40
Properties=species:S:1:pos:R:3 #=T CELL(abcABC):=T 1.889726e+02=T 90.00000=T Traj:=T positionsangstrom=T Step:=T 0=T Bead:=T pbc="F F F"
C      -47.16740000     -33.66960000     -73.20470000
C      -46.18430000     -33.25770000     -74.13350000
C      -45.70730000     -31.93690000     -73.93880000
C      -46.25240000     -31.06460000     -72.96060000
C      -47.23950000     -31.51960000     -72.07260000
C      -47.77820000     -32.79030000     -72.28340000
H      -47.51980000     -34.68670000     -73.35690000
H      -44.83940000     -31.54940000     -74.47490000
H      -47.59120000     -30.83040000     -71.32490000
H      -48.57480000     -33.21640000     -71.60950000
C      -45.73480000     -29.65930000     -72.75660000
H      -46.40600000     -29.06650000     -72.15240000
H      -45.42740000     -29.11190000     -73.62480000
C      -45.64710000     -34.05900000     -75.30160000
H      -46.42780000     -34.72360000     -75.72810000
H      -45.27550000     -33.37010000     -76.05210000
S      -44.21410000     -29.64450000     -71.79110000
S      -44.19230000     -35.06170000     -74.86760000
C      -44.57450000     -30.69850000     -70.28130000
H      -44.44300000     -30.01730000     -69.48270000
H      -45.64630000     -30.92090000     -70.29100000
C      -44.75380000     -35.65280000     -73.18480000
H      -44.26880000     -36.63970000     -73.13880000
H      -45.79690000     -35.74280000     -73.14350000
C      -44.22850000     -34.75080000     -72.06570000
H      -43.09000000     -34.73650000     -71.94610000
H      -44.39640000     -33.69700000     -72.24610000
C      -43.67400000     -31.91290000     -70.08000000
H      -42.73620000     -31.66180000     -69.71630000
H      -43.41860000     -32.32830000     -71.04590000
C      -44.23830000     -32.99180000     -69.17370000
C      -44.54730000     -32.73260000     -67.83840000
C      -44.81540000     -34.27650000     -69.60860000
H      -44.33380000     -31.79040000     -67.40100000
C      -45.49250000     -34.89420000     -68.54500000
C      -44.85940000     -35.16040000     -70.77660000
C      -45.54010000     -36.34010000     -70.57340000
S      -45.66980000     -33.92880000     -67.12240000
S      -46.06270000     -36.50440000     -68.93530000
H      -45.37640000     -37.20960000     -71.20320000
