40
Properties=species:S:1:pos:R:3 #=T CELL(abcABC):=T 1.889726e+02=T 90.00000=T Traj:=T positionsangstrom=T Step:=T 0=T Bead:=T pbc="F F F"
C      -47.33850000     -33.63830000     -73.33380000
C      -46.28830000     -33.24200000     -74.15740000
C      -45.76220000     -31.96270000     -73.86030000
C      -46.23330000     -31.15520000     -72.78220000
C      -47.31030000     -31.55200000     -72.02700000
C      -47.80030000     -32.85470000     -72.30370000
H      -47.83380000     -34.60080000     -73.52020000
H      -45.05150000     -31.51670000     -74.59700000
H      -47.77150000     -30.86940000     -71.34580000
H      -48.73110000     -33.17220000     -71.78530000
C      -45.72210000     -29.74100000     -72.64330000
H      -46.51450000     -29.22720000     -72.08490000
H      -45.65930000     -29.20340000     -73.61150000
C      -45.81710000     -34.01840000     -75.35000000
H      -46.60190000     -34.61240000     -75.74500000
H      -45.58640000     -33.34410000     -76.20050000
S      -44.08170000     -29.69750000     -71.71450000
S      -44.21440000     -35.00760000     -74.95410000
C      -44.51990000     -30.71240000     -70.25440000
H      -44.37260000     -30.07820000     -69.37520000
H      -45.59820000     -30.99550000     -70.34850000
C      -44.43760000     -35.68730000     -73.27860000
H      -43.69930000     -36.50860000     -73.24350000
H      -45.44440000     -36.11450000     -73.13860000
C      -44.18880000     -34.73680000     -72.09470000
H      -43.13610000     -34.50840000     -71.98900000
H      -44.62510000     -33.77790000     -72.32040000
C      -43.72690000     -32.03370000     -70.22110000
H      -42.66870000     -31.78220000     -69.99060000
H      -43.96370000     -32.39790000     -71.18900000
C      -44.42120000     -32.98210000     -69.24060000
C      -44.81660000     -32.54980000     -67.97330000
C      -44.85290000     -34.29240000     -69.59340000
H      -44.58950000     -31.63040000     -67.54210000
C      -45.44290000     -34.87930000     -68.48540000
C      -44.79640000     -35.14830000     -70.73590000
C      -45.34150000     -36.40770000     -70.54810000
S      -45.52440000     -33.90340000     -67.05640000
S      -46.12000000     -36.43710000     -68.91190000
H      -45.48050000     -37.24280000     -71.20520000
