40
Properties=species:S:1:pos:R:3 #=T CELL(abcABC):=T 1.889726e+02=T 90.00000=T Traj:=T positionsangstrom=T Step:=T 0=T Bead:=T pbc="F F F"
C      -46.39360000     -35.68340000     -74.85370000
C      -46.82620000     -34.59210000     -74.02880000
C      -46.14900000     -33.35770000     -74.05700000
C      -45.01200000     -33.17290000     -74.87780000
C      -44.58900000     -34.30140000     -75.60640000
C      -45.23390000     -35.51840000     -75.57960000
H      -46.85990000     -36.65300000     -74.76500000
H      -46.46210000     -32.58950000     -73.39770000
H      -43.72120000     -34.19350000     -76.17350000
H      -44.83190000     -36.24280000     -76.26980000
C      -44.23480000     -31.89040000     -74.96300000
H      -44.84950000     -31.07060000     -74.48210000
H      -43.91890000     -31.62600000     -75.96070000
C      -47.91290000     -34.78160000     -73.05450000
H      -48.28460000     -33.75290000     -72.64450000
H      -48.78190000     -35.19100000     -73.57590000
S      -42.78570000     -31.97290000     -73.70590000
S      -47.66630000     -35.98190000     -71.57580000
C      -43.73230000     -31.50630000     -72.11750000
H      -43.83570000     -30.37490000     -72.00400000
H      -44.79020000     -31.72120000     -72.18010000
C      -45.81590000     -35.92200000     -71.25350000
H      -45.14300000     -36.33340000     -72.08390000
H      -45.61090000     -36.58440000     -70.39630000
C      -45.30360000     -34.44860000     -70.94130000
H      -44.23360000     -34.47360000     -70.99180000
H      -45.59640000     -33.90430000     -71.80070000
C      -43.09860000     -32.06630000     -70.89100000
H      -42.12610000     -31.54010000     -70.74630000
H      -42.80060000     -33.06140000     -71.11540000
C      -43.89870000     -31.91290000     -69.59980000
C      -43.51610000     -31.01680000     -68.67980000
C      -45.02920000     -32.70660000     -69.18570000
H      -42.75010000     -30.27540000     -68.76670000
C      -45.48540000     -32.33990000     -67.87130000
C      -45.67570000     -33.87510000     -69.61710000
C      -46.53050000     -34.43390000     -68.68790000
S      -44.57740000     -31.05620000     -67.21570000
S      -46.72620000     -33.39530000     -67.30900000
H      -47.16840000     -35.27470000     -68.71780000
