40
Properties=species:S:1:pos:R:3 #=T CELL(abcABC):=T 1.889726e+02=T 90.00000=T Traj:=T positionsangstrom=T Step:=T 0=T Bead:=T pbc="F F F"
C      -47.44330000     -33.69160000     -73.14650000
C      -46.43510000     -33.35830000     -74.04570000
C      -45.82460000     -32.12600000     -73.89330000
C      -46.23890000     -31.16780000     -72.98350000
C      -47.23600000     -31.51630000     -72.07770000
C      -47.90540000     -32.71660000     -72.26930000
H      -47.90120000     -34.72480000     -73.07560000
H      -45.04830000     -31.78090000     -74.64430000
H      -47.64250000     -30.80360000     -71.36360000
H      -48.71710000     -32.94590000     -71.48250000
C      -45.55730000     -29.78020000     -72.92010000
H      -46.14650000     -28.96310000     -72.50200000
H      -45.18140000     -29.59340000     -73.90890000
C      -45.97660000     -34.35960000     -75.16290000
H      -46.56620000     -35.27480000     -75.14650000
H      -46.00050000     -33.94480000     -76.20060000
S      -44.07200000     -29.59080000     -71.82100000
S      -44.19170000     -34.82790000     -74.87380000
C      -44.26900000     -30.50240000     -70.25020000
H      -43.54870000     -30.09170000     -69.55740000
H      -45.27580000     -30.39030000     -69.81390000
C      -44.44990000     -35.62060000     -73.17940000
H      -43.70020000     -36.45800000     -73.10170000
H      -45.52120000     -35.98340000     -73.25150000
C      -44.33510000     -34.69750000     -72.03250000
H      -43.31810000     -34.54420000     -71.80120000
H      -44.69990000     -33.73980000     -72.25150000
C      -43.98250000     -32.03870000     -70.37480000
H      -42.87510000     -32.34090000     -70.41540000
H      -44.46190000     -32.38670000     -71.29360000
C      -44.61430000     -32.92050000     -69.35880000
C      -44.87890000     -32.51980000     -68.06120000
C      -44.96430000     -34.29510000     -69.56110000
H      -44.62560000     -31.56900000     -67.67250000
C      -45.51910000     -34.88760000     -68.47370000
C      -44.92260000     -35.16080000     -70.75180000
C      -45.34130000     -36.43850000     -70.49240000
S      -45.36410000     -33.94230000     -67.08000000
S      -45.92970000     -36.57020000     -68.82280000
H      -45.44280000     -37.25660000     -71.19140000
