40
Properties=species:S:1:pos:R:3 #=T CELL(abcABC):=T 1.889726e+02=T 90.00000=T Traj:=T positionsangstrom=T Step:=T 0=T Bead:=T pbc="F F F"
C      -46.19780000     -35.77340000     -74.66880000
C      -46.66490000     -34.71980000     -73.87900000
C      -46.09070000     -33.42180000     -73.98750000
C      -45.05200000     -33.12030000     -74.85890000
C      -44.65820000     -34.24330000     -75.68630000
C      -45.19480000     -35.48280000     -75.58140000
H      -46.63100000     -36.71950000     -74.46830000
H      -46.52090000     -32.57930000     -73.44840000
H      -43.95890000     -34.07990000     -76.53940000
H      -44.70820000     -36.25160000     -76.25800000
C      -44.26520000     -31.81850000     -74.81810000
H      -44.92970000     -30.96110000     -74.53740000
H      -43.91810000     -31.63940000     -75.77710000
C      -47.85840000     -34.81410000     -72.94860000
H      -48.12010000     -33.82720000     -72.52280000
H      -48.71210000     -35.23610000     -73.43850000
S      -42.93040000     -32.03370000     -73.62030000
S      -47.65170000     -35.96280000     -71.51330000
C      -43.54010000     -31.39680000     -72.06190000
H      -43.22800000     -30.36100000     -72.03380000
H      -44.62120000     -31.60840000     -72.09580000
C      -45.81740000     -35.93360000     -71.34730000
H      -45.41000000     -36.11230000     -72.32050000
H      -45.60380000     -36.71510000     -70.63170000
C      -45.21480000     -34.57160000     -71.01800000
H      -44.14710000     -34.70400000     -70.88080000
H      -45.35400000     -33.76830000     -71.80350000
C      -43.02900000     -32.14020000     -70.82640000
H      -42.00030000     -31.76730000     -70.56520000
H      -42.82890000     -33.17750000     -71.06460000
C      -43.86860000     -31.90520000     -69.57930000
C      -43.57180000     -30.95330000     -68.66210000
C      -44.96840000     -32.75110000     -69.19520000
H      -42.67020000     -30.38760000     -68.51840000
C      -45.45360000     -32.35850000     -67.92740000
C      -45.64820000     -33.89220000     -69.75960000
C      -46.62960000     -34.37070000     -68.94540000
S      -44.65860000     -30.94730000     -67.28440000
S      -46.81700000     -33.40160000     -67.43100000
H      -47.30040000     -35.22220000     -69.18090000
