40
Properties=species:S:1:pos:R:3 #=T CELL(abcABC):=T 1.889726e+02=T 90.00000=T Traj:=T positionsangstrom=T Step:=T 0=T Bead:=T pbc="F F F"
C      -46.46770000     -35.07180000     -74.76910000
C      -46.89640000     -34.28820000     -73.74440000
C      -46.45490000     -32.94620000     -73.66220000
C      -45.59250000     -32.39250000     -74.59370000
C      -45.04530000     -33.23470000     -75.60060000
C      -45.52930000     -34.50670000     -75.66330000
H      -46.64830000     -36.14450000     -74.81550000
H      -46.76050000     -32.38350000     -72.79790000
H      -44.21250000     -32.96240000     -76.28790000
H      -45.04140000     -35.09030000     -76.40920000
C      -45.21700000     -30.93740000     -74.44690000
H      -45.99960000     -30.32530000     -73.90170000
H      -45.02100000     -30.36010000     -75.37590000
C      -47.78870000     -34.70700000     -72.58920000
H      -47.61470000     -34.02840000     -71.73130000
H      -48.82240000     -34.67190000     -72.93100000
S      -43.54940000     -30.71650000     -73.58420000
S      -47.34180000     -36.35200000     -71.99670000
C      -43.93240000     -30.81140000     -71.81480000
H      -43.55240000     -29.94470000     -71.30710000
H      -44.97230000     -30.90660000     -71.66260000
C      -45.51900000     -36.38190000     -71.69870000
H      -44.98380000     -36.71100000     -72.58020000
H      -45.43700000     -37.11330000     -70.89700000
C      -44.93120000     -35.03820000     -71.13890000
H      -43.85280000     -35.07140000     -71.25870000
H      -45.27520000     -34.17740000     -71.71150000
C      -43.31970000     -32.12450000     -71.16780000
H      -42.24480000     -32.02940000     -71.18520000
H      -43.52540000     -32.94700000     -71.85390000
C      -43.86020000     -32.31140000     -69.73490000
C      -43.68980000     -31.26310000     -68.87230000
C      -44.70710000     -33.32690000     -69.19570000
H      -43.03670000     -30.47750000     -68.94350000
C      -45.07520000     -33.09490000     -67.88140000
C      -45.22690000     -34.56250000     -69.74050000
C      -46.01550000     -35.23230000     -68.80770000
S      -44.45610000     -31.52640000     -67.32180000
S      -46.04260000     -34.40160000     -67.22550000
H      -46.49490000     -36.16620000     -69.05140000
