40
Properties=species:S:1:pos:R:3 #=T CELL(abcABC):=T 1.889726e+02=T 90.00000=T Traj:=T positionsangstrom=T Step:=T 0=T Bead:=T pbc="F F F"
C      -46.51660000     -35.66500000     -74.80680000
C      -46.91990000     -34.54300000     -74.09610000
C      -46.09840000     -33.40970000     -74.07050000
C      -44.90950000     -33.37540000     -74.87190000
C      -44.59240000     -34.43780000     -75.69660000
C      -45.40280000     -35.63680000     -75.64030000
H      -47.13710000     -36.56730000     -74.83700000
H      -46.37870000     -32.44930000     -73.60540000
H      -43.58830000     -34.45100000     -76.15590000
H      -45.24160000     -36.54580000     -76.18520000
C      -44.18720000     -32.00050000     -74.88600000
H      -44.84050000     -31.16460000     -74.97210000
H      -43.55270000     -31.92730000     -75.79890000
C      -48.04830000     -34.69510000     -73.18020000
H      -48.27160000     -33.81770000     -72.65910000
H      -48.92850000     -34.98920000     -73.75000000
S      -42.91610000     -31.63850000     -73.59940000
S      -47.77410000     -36.04700000     -71.88540000
C      -43.84240000     -31.47820000     -72.01040000
H      -44.02080000     -30.40760000     -71.85450000
H      -44.74160000     -32.05550000     -72.12250000
C      -46.02440000     -35.98290000     -71.22550000
H      -45.56220000     -36.44790000     -72.06230000
H      -46.07820000     -36.79460000     -70.53810000
C      -45.22290000     -34.72340000     -70.82990000
H      -44.13440000     -35.09440000     -70.68120000
H      -45.22850000     -34.06210000     -71.67060000
C      -43.09930000     -32.07770000     -70.84630000
H      -42.07250000     -31.66650000     -70.77920000
H      -43.04370000     -33.16060000     -71.05580000
C      -43.71410000     -31.92690000     -69.47900000
C      -43.56850000     -30.87070000     -68.67510000
C      -44.81120000     -32.79440000     -69.10480000
H      -42.91850000     -30.00890000     -68.91120000
C      -45.25870000     -32.43930000     -67.79970000
C      -45.56190000     -33.93400000     -69.58330000
C      -46.57710000     -34.33970000     -68.72520000
S      -44.53100000     -30.95840000     -67.24370000
S      -46.52720000     -33.40130000     -67.19400000
H      -47.23190000     -35.15440000     -68.77640000
