40
Properties=species:S:1:pos:R:3 #=T CELL(abcABC):=T 1.889726e+02=T 90.00000=T Traj:=T positionsangstrom=T Step:=T 0=T Bead:=T pbc="F F F"
C      -44.67280000     -33.48750000     -67.71130000
C      -46.01840000     -33.74400000     -68.00820000
C      -46.87580000     -32.75480000     -68.57240000
C      -46.37130000     -31.50160000     -68.86790000
C      -45.02300000     -31.18770000     -68.46110000
C      -44.16630000     -32.16740000     -67.88950000
H      -44.12030000     -34.22710000     -67.16000000
H      -47.82880000     -33.11890000     -69.03140000
H      -44.55830000     -30.18380000     -68.63580000
H      -43.09810000     -31.88550000     -67.74370000
C      -47.26680000     -30.51060000     -69.59800000
H      -46.91960000     -29.51350000     -69.74010000
H      -48.16120000     -30.41950000     -68.97130000
C      -46.54850000     -35.10600000     -67.73530000
H      -45.68220000     -35.71970000     -67.37110000
H      -47.28330000     -35.13140000     -66.90140000
S      -47.85820000     -31.22380000     -71.18170000
S      -47.39930000     -35.83620000     -69.21390000
C      -46.27950000     -31.14340000     -72.18790000
H      -46.08330000     -30.04990000     -72.43710000
H      -45.46800000     -31.39030000     -71.51560000
C      -46.12960000     -35.99720000     -70.54240000
H      -46.49140000     -36.84940000     -71.12110000
H      -45.24220000     -36.28170000     -70.15640000
C      -45.98250000     -34.66900000     -71.41210000
H      -46.84340000     -34.43210000     -71.98830000
H      -45.64630000     -33.78220000     -70.74850000
C      -46.42660000     -32.06600000     -73.38760000
H      -46.87720000     -31.45400000     -74.21620000
H      -47.04260000     -32.88150000     -73.06750000
C      -45.03000000     -32.57400000     -73.78360000
C      -44.37410000     -31.98770000     -74.83130000
C      -44.32530000     -33.67960000     -73.22660000
H      -44.73630000     -31.03550000     -75.37040000
C      -43.11420000     -33.88670000     -73.88680000
C      -44.70100000     -34.78420000     -72.35420000
C      -43.66810000     -35.70500000     -72.33230000
S      -42.84500000     -32.76080000     -75.13640000
S      -42.26420000     -35.35500000     -73.36660000
H      -43.64690000     -36.73280000     -71.80650000
