40
Properties=species:S:1:pos:R:3 #=T CELL(abcABC):=T 1.889726e+02=T 90.00000=T Traj:=T positionsangstrom=T Step:=T 0=T Bead:=T pbc="F F F"
C      -46.48510000     -34.63410000     -75.24950000
C      -47.07820000     -33.91670000     -74.20470000
C      -46.67710000     -32.54940000     -73.97420000
C      -45.54900000     -32.02350000     -74.66300000
C      -44.93020000     -32.80520000     -75.72370000
C      -45.45520000     -34.10160000     -76.05400000
H      -46.75860000     -35.67230000     -75.40790000
H      -46.99090000     -32.06610000     -73.04030000
H      -44.03820000     -32.37000000     -76.18290000
H      -45.02500000     -34.64090000     -76.87470000
C      -45.24230000     -30.56010000     -74.31630000
H      -46.10040000     -30.17400000     -73.75820000
H      -44.95710000     -29.99560000     -75.23430000
C      -47.99960000     -34.60360000     -73.22560000
H      -48.46710000     -33.86890000     -72.62820000
H      -48.87120000     -35.09930000     -73.74270000
S      -43.80340000     -30.57230000     -73.20680000
S      -47.19710000     -35.85920000     -72.16760000
C      -44.61320000     -31.05380000     -71.60630000
H      -45.11020000     -30.17980000     -71.20890000
H      -45.30500000     -31.79850000     -71.76210000
C      -45.31870000     -35.79570000     -72.22250000
H      -44.93110000     -35.74240000     -73.31780000
H      -45.04780000     -36.77940000     -71.72490000
C      -44.69170000     -34.71130000     -71.42730000
H      -43.62910000     -34.80830000     -71.65280000
H      -45.02160000     -33.73010000     -71.89040000
C      -43.56520000     -31.54650000     -70.59500000
H      -42.81250000     -30.77920000     -70.36950000
H      -42.99780000     -32.32000000     -71.17530000
C      -44.03260000     -32.16920000     -69.22760000
C      -44.12470000     -31.43070000     -68.03940000
C      -44.48650000     -33.49820000     -69.06960000
H      -43.72380000     -30.46940000     -67.82450000
C      -44.85110000     -33.78910000     -67.72200000
C      -44.80080000     -34.63050000     -69.88830000
C      -45.36380000     -35.68840000     -69.22710000
S      -44.79460000     -32.37000000     -66.75070000
S      -45.53370000     -35.35190000     -67.42690000
H      -45.69540000     -36.67350000     -69.57950000
