40
Properties=species:S:1:pos:R:3 #=T CELL(abcABC):=T 1.889726e+02=T 90.00000=T Traj:=T positionsangstrom=T Step:=T 0=T Bead:=T pbc="F F F"
C      -46.43090000     -34.99490000     -74.74220000
C      -46.77930000     -34.19940000     -73.64580000
C      -46.33040000     -32.87290000     -73.58770000
C      -45.49010000     -32.32570000     -74.61330000
C      -45.26250000     -33.09710000     -75.77490000
C      -45.65010000     -34.45890000     -75.77770000
H      -46.87800000     -36.03490000     -74.89970000
H      -46.62580000     -32.20800000     -72.73680000
H      -44.91130000     -32.65350000     -76.71830000
H      -45.53410000     -34.98540000     -76.69760000
C      -44.99270000     -30.82790000     -74.71640000
H      -45.79600000     -30.16100000     -74.45650000
H      -44.66800000     -30.67340000     -75.72080000
C      -47.69440000     -34.70940000     -72.60750000
H      -47.69770000     -34.11450000     -71.68290000
H      -48.80200000     -34.81870000     -72.86980000
S      -43.52090000     -30.49300000     -73.56940000
S      -47.31130000     -36.48660000     -72.12410000
C      -44.24920000     -30.84700000     -71.83800000
H      -44.31320000     -29.89570000     -71.24970000
H      -45.36740000     -31.10880000     -71.92790000
C      -45.47730000     -36.51580000     -71.59270000
H      -44.99580000     -36.80790000     -72.56320000
H      -45.16470000     -37.21800000     -70.79160000
C      -44.85960000     -35.14950000     -71.17410000
H      -43.74570000     -35.24900000     -71.31170000
H      -45.15500000     -34.37580000     -71.89970000
C      -43.40990000     -31.93980000     -71.07080000
H      -42.37330000     -31.61940000     -70.91200000
H      -43.42970000     -32.91230000     -71.68570000
C      -43.94370000     -32.19820000     -69.62980000
C      -43.75290000     -31.23010000     -68.62700000
C      -44.69230000     -33.35010000     -69.23650000
H      -43.21770000     -30.33510000     -68.83180000
C      -45.02710000     -33.19510000     -67.88640000
C      -45.09310000     -34.61920000     -69.79290000
C      -45.87560000     -35.30790000     -68.79290000
S      -44.50570000     -31.73990000     -67.09990000
S      -46.09830000     -34.42450000     -67.30430000
H      -46.41630000     -36.32640000     -68.89830000
