40
Properties=species:S:1:pos:R:3 #=T CELL(abcABC):=T 1.889726e+02=T 90.00000=T Traj:=T positionsangstrom=T Step:=T 0=T Bead:=T pbc="F F F"
C      -43.27100000     -33.26040000     -74.15250000
C      -42.90070000     -34.41240000     -73.46300000
C      -42.31090000     -34.32230000     -72.19160000
C      -42.09070000     -33.10860000     -71.50550000
C      -42.38490000     -31.90830000     -72.26380000
C      -43.00260000     -32.01720000     -73.51560000
H      -43.76610000     -33.23140000     -75.11500000
H      -42.04350000     -35.19080000     -71.60460000
H      -42.25970000     -30.87560000     -71.85090000
H      -43.21610000     -31.04710000     -74.02960000
C      -41.60340000     -33.15090000     -70.10800000
H      -40.53820000     -32.97840000     -69.97580000
H      -41.88300000     -34.13150000     -69.59230000
C      -43.07400000     -35.79950000     -74.03190000
H      -42.46910000     -35.85260000     -74.94480000
H      -42.80550000     -36.62220000     -73.39310000
S      -42.40450000     -31.79930000     -69.09630000
S      -44.90900000     -36.05620000     -74.34580000
C      -44.19050000     -32.22030000     -69.26080000
H      -44.46620000     -33.30710000     -69.29860000
H      -44.64990000     -31.71120000     -68.40430000
C      -45.59410000     -35.87280000     -72.60300000
H      -45.07540000     -36.47470000     -71.88560000
H      -46.51700000     -36.33800000     -72.51850000
C      -45.66980000     -34.43100000     -72.08190000
H      -44.92360000     -34.31510000     -71.29690000
H      -45.35330000     -33.68060000     -72.80840000
C      -44.98170000     -31.64030000     -70.48690000
H      -44.67450000     -32.09210000     -71.42840000
H      -44.77950000     -30.57810000     -70.61370000
C      -46.43630000     -31.83730000     -70.10780000
C      -47.11230000     -31.18830000     -69.08060000
C      -47.24960000     -32.90430000     -70.62470000
H      -46.73950000     -30.26610000     -68.63360000
C      -48.50550000     -32.93660000     -70.06850000
C      -47.03520000     -34.07920000     -71.50310000
C      -48.16520000     -34.87150000     -71.63100000
S      -48.75960000     -31.72150000     -68.86560000
S      -49.54020000     -34.17780000     -70.70390000
H      -48.44540000     -35.74560000     -72.33900000
