40
Properties=species:S:1:pos:R:3 #=T CELL(abcABC):=T 1.889726e+02=T 90.00000=T Traj:=T positionsangstrom=T Step:=T 0=T Bead:=T pbc="F F F"
C      -46.36750000     -34.65900000     -75.15070000
C      -46.77860000     -33.94800000     -74.00560000
C      -46.42410000     -32.63890000     -73.76520000
C      -45.46190000     -32.04020000     -74.60590000
C      -44.96530000     -32.77440000     -75.69450000
C      -45.45270000     -34.07690000     -75.99120000
H      -46.74250000     -35.65990000     -75.40980000
H      -46.69200000     -32.28940000     -72.76060000
H      -44.22270000     -32.39690000     -76.34590000
H      -45.14660000     -34.49780000     -76.96640000
C      -45.12350000     -30.58260000     -74.37950000
H      -45.95300000     -30.00750000     -73.87940000
H      -44.69100000     -30.04100000     -75.23000000
C      -47.87000000     -34.51360000     -72.97840000
H      -48.02790000     -33.68020000     -72.27880000
H      -48.71500000     -34.86570000     -73.47270000
S      -43.67430000     -30.56620000     -73.21210000
S      -47.19760000     -35.96780000     -71.98990000
C      -44.40310000     -30.71120000     -71.51310000
H      -44.41500000     -29.78170000     -71.01200000
H      -45.46440000     -31.09820000     -71.59620000
C      -45.34330000     -36.00190000     -72.14330000
H      -45.09730000     -36.15420000     -73.14110000
H      -45.19540000     -37.03200000     -71.79270000
C      -44.64730000     -34.82050000     -71.45190000
H      -43.54880000     -34.81580000     -71.70300000
H      -44.99950000     -33.95650000     -72.02260000
C      -43.52780000     -31.66810000     -70.65910000
H      -42.50330000     -31.25550000     -70.43730000
H      -43.45430000     -32.57620000     -71.25320000
C      -44.17370000     -32.14580000     -69.38270000
C      -44.16040000     -31.41670000     -68.20110000
C      -44.79040000     -33.44840000     -69.21040000
H      -43.86570000     -30.49550000     -67.87190000
C      -45.10380000     -33.70150000     -67.91930000
C      -45.03780000     -34.60540000     -70.02340000
C      -45.53990000     -35.62890000     -69.28740000
S      -44.79370000     -32.39940000     -66.79500000
S      -45.72830000     -35.26560000     -67.60200000
H      -45.79870000     -36.60910000     -69.57770000
