40
Properties=species:S:1:pos:R:3 #=T CELL(abcABC):=T 1.889726e+02=T 90.00000=T Traj:=T positionsangstrom=T Step:=T 0=T Bead:=T pbc="F F F"
C      -43.50940000     -33.50420000     -75.23260000
C      -42.92270000     -33.61420000     -73.93950000
C      -43.23970000     -34.82720000     -73.26630000
C      -44.06380000     -35.84170000     -73.73370000
C      -44.49420000     -35.76130000     -75.03000000
C      -44.26580000     -34.59950000     -75.72530000
H      -43.42900000     -32.49110000     -75.65280000
H      -42.74740000     -35.06210000     -72.27410000
H      -45.20680000     -36.43710000     -75.44210000
H      -44.60240000     -34.50640000     -76.77410000
C      -44.47560000     -36.99880000     -72.89970000
H      -43.96440000     -37.86760000     -73.22920000
H      -45.46400000     -37.28750000     -73.07770000
C      -42.21810000     -32.49530000     -73.21870000
H      -42.22630000     -32.73920000     -72.17140000
H      -41.22100000     -32.21160000     -73.57800000
S      -44.22400000     -37.05870000     -71.04210000
S      -43.19990000     -30.90380000     -73.42820000
C      -45.73720000     -36.27560000     -70.30610000
H      -46.64610000     -36.80250000     -70.63780000
H      -45.67730000     -36.42860000     -69.20560000
C      -44.82580000     -31.34550000     -72.65920000
H      -45.21440000     -32.34770000     -73.09600000
H      -45.61780000     -30.59440000     -72.78140000
C      -44.70550000     -31.48750000     -71.17770000
H      -44.15750000     -32.46020000     -70.99310000
H      -43.96280000     -30.75510000     -70.88510000
C      -45.81170000     -34.77590000     -70.55030000
H      -45.83110000     -34.69210000     -71.60440000
H      -44.78390000     -34.42720000     -70.44830000
C      -46.72920000     -33.92920000     -69.60100000
C      -47.47870000     -34.40740000     -68.58750000
C      -46.66390000     -32.46600000     -69.61110000
H      -47.58870000     -35.50290000     -68.38900000
C      -47.52450000     -31.99580000     -68.63990000
C      -45.90990000     -31.36030000     -70.21360000
C      -46.31220000     -30.10680000     -69.73040000
S      -48.37220000     -33.19390000     -67.70100000
S      -47.52790000     -30.18520000     -68.47480000
H      -45.83050000     -29.11620000     -69.89220000
