40
Properties=species:S:1:pos:R:3 #=T CELL(abcABC):=T 1.889726e+02=T 90.00000=T Traj:=T positionsangstrom=T Step:=T 0=T Bead:=T pbc="F F F"
C      -44.27600000     -37.59930000     -71.29300000
C      -45.57450000     -37.06420000     -71.02990000
C      -46.07640000     -36.23840000     -72.06610000
C      -45.35310000     -35.94830000     -73.19260000
C      -43.98650000     -36.35790000     -73.31610000
C      -43.48740000     -37.25930000     -72.38830000
H      -43.93500000     -38.36810000     -70.62800000
H      -47.13170000     -35.85330000     -71.91050000
H      -43.45920000     -36.04700000     -74.21130000
H      -42.56010000     -37.70300000     -72.52000000
C      -46.08260000     -35.28470000     -74.34670000
H      -46.52790000     -36.06990000     -75.05670000
H      -45.44060000     -34.74540000     -74.96570000
C      -46.22970000     -37.23260000     -69.64570000
H      -47.12080000     -37.81020000     -69.79350000
H      -45.49600000     -37.92330000     -69.06650000
S      -47.41810000     -34.17700000     -73.79210000
S      -46.75950000     -35.72830000     -68.83560000
C      -46.36550000     -32.73890000     -73.46430000
H      -45.52390000     -33.10420000     -72.91980000
H      -45.91880000     -32.28090000     -74.42370000
C      -45.35220000     -34.56790000     -69.02500000
H      -44.60780000     -35.11110000     -69.53700000
H      -44.99910000     -34.26840000     -68.02600000
C      -45.86900000     -33.30880000     -69.82330000
H      -46.27820000     -33.66860000     -70.77980000
H      -46.73210000     -32.89890000     -69.20680000
C      -46.94600000     -31.61720000     -72.57450000
H      -47.51430000     -32.10790000     -71.77740000
H      -47.59010000     -30.95840000     -73.11620000
C      -45.85370000     -30.72440000     -71.93410000
C      -45.66890000     -29.43380000     -72.36770000
C      -44.92590000     -31.13370000     -70.92120000
H      -46.09010000     -29.02770000     -73.24120000
C      -44.02290000     -30.10650000     -70.67510000
C      -44.82640000     -32.24920000     -69.99940000
C      -43.77320000     -32.04260000     -69.09210000
S      -44.35520000     -28.67270000     -71.59200000
S      -42.86640000     -30.57040000     -69.37150000
H      -43.40850000     -32.60180000     -68.28170000
