40
Properties=species:S:1:pos:R:3 #=T CELL(abcABC):=T 1.889726e+02=T 90.00000=T Traj:=T positionsangstrom=T Step:=T 0=T Bead:=T pbc="F F F"
C      -46.47790000     -34.51420000     -69.33290000
C      -47.20620000     -34.60150000     -70.52660000
C      -46.55050000     -35.06580000     -71.71190000
C      -45.25880000     -35.54820000     -71.62690000
C      -44.55130000     -35.50260000     -70.41450000
C      -45.14650000     -35.01030000     -69.29120000
H      -47.03260000     -34.14600000     -68.42920000
H      -46.97870000     -35.18310000     -72.73580000
H      -43.53140000     -35.74520000     -70.46680000
H      -44.55730000     -34.92900000     -68.38700000
C      -44.56940000     -36.15240000     -72.84840000
H      -44.80390000     -37.25690000     -72.89140000
H      -43.51320000     -36.09750000     -72.67880000
C      -48.62020000     -34.13150000     -70.71520000
H      -48.95780000     -34.43450000     -71.74060000
H      -49.22090000     -34.59610000     -69.93340000
S      -44.99950000     -35.45610000     -74.50960000
S      -48.91430000     -32.37750000     -70.24630000
C      -43.93970000     -33.94310000     -74.83080000
H      -42.85210000     -34.08540000     -74.79350000
H      -44.12070000     -33.62620000     -75.88540000
C      -48.19660000     -31.38730000     -71.66870000
H      -48.21840000     -30.35910000     -71.39800000
H      -48.94090000     -31.46460000     -72.51840000
C      -46.81880000     -31.68890000     -72.12620000
H      -46.86520000     -32.71850000     -72.46490000
H      -46.49560000     -31.06990000     -73.05640000
C      -44.16660000     -32.71610000     -73.86420000
H      -45.21270000     -32.44530000     -73.87610000
H      -43.62670000     -31.84280000     -74.34270000
C      -43.63570000     -32.75790000     -72.45520000
C      -42.34810000     -33.10370000     -72.11430000
C      -44.36400000     -32.23340000     -71.28590000
H      -41.50250000     -33.33510000     -72.76290000
C      -43.60460000     -32.29740000     -70.11280000
C      -45.73720000     -31.70650000     -71.06350000
C      -45.84590000     -31.25570000     -69.77520000
S      -42.00930000     -32.84650000     -70.38630000
S      -44.50020000     -31.70860000     -68.71370000
H      -46.73270000     -31.01020000     -69.25270000
