40
Properties=species:S:1:pos:R:3 #=T CELL(abcABC):=T 1.889726e+02=T 90.00000=T Traj:=T positionsangstrom=T Step:=T 0=T Bead:=T pbc="F F F"
C      -49.09800000     -33.85450000     -73.14960000
C      -47.80930000     -33.57730000     -73.79460000
C      -47.19950000     -32.38030000     -73.57130000
C      -47.77890000     -31.38170000     -72.80870000
C      -49.02160000     -31.63730000     -72.19030000
C      -49.68370000     -32.90630000     -72.35920000
H      -49.37180000     -34.90240000     -73.30360000
H      -46.22780000     -32.13360000     -74.03410000
H      -49.48440000     -30.94500000     -71.53110000
H      -50.60280000     -33.22480000     -71.85000000
C      -47.10630000     -29.99780000     -72.63610000
H      -47.60970000     -29.35220000     -71.84340000
H      -47.24840000     -29.30550000     -73.47150000
C      -47.19360000     -34.53310000     -74.71650000
H      -47.84890000     -35.44810000     -74.82340000
H      -47.21140000     -34.20960000     -75.79490000
S      -45.24340000     -29.93000000     -72.60880000
S      -45.44040000     -35.09390000     -74.39100000
C      -44.54830000     -30.76660000     -71.09120000
H      -43.45620000     -30.79640000     -71.30910000
H      -44.57210000     -30.07310000     -70.19330000
C      -45.39170000     -35.35640000     -72.55780000
H      -45.87910000     -36.16630000     -72.23950000
H      -45.89780000     -34.61600000     -71.99280000
C      -43.88720000     -35.21380000     -72.12410000
H      -43.35830000     -36.03670000     -72.59010000
H      -43.52980000     -34.33970000     -72.70010000
C      -45.05000000     -32.21130000     -70.95550000
H      -44.78600000     -32.78640000     -71.78390000
H      -46.11770000     -32.30370000     -70.85130000
C      -44.39520000     -32.87000000     -69.75350000
C      -44.33650000     -32.27500000     -68.49530000
C      -43.82560000     -34.23730000     -69.64810000
H      -44.60080000     -31.20470000     -68.41810000
C      -43.47990000     -34.54620000     -68.38450000
C      -43.45900000     -35.20050000     -70.65260000
C      -42.76920000     -36.26680000     -70.11250000
S      -43.55630000     -33.20960000     -67.22390000
S      -42.59180000     -36.09710000     -68.36840000
H      -42.42630000     -37.20860000     -70.51520000
