40
Properties=species:S:1:pos:R:3 #=T CELL(abcABC):=T 1.889726e+02=T 90.00000=T Traj:=T positionsangstrom=T Step:=T 0=T Bead:=T pbc="F F F"
C      -48.63670000     -34.23780000     -72.56680000
C      -47.87140000     -33.84270000     -73.58960000
C      -47.43160000     -32.51330000     -73.70110000
C      -47.73960000     -31.56950000     -72.72850000
C      -48.68110000     -31.96090000     -71.68110000
C      -49.01130000     -33.28350000     -71.59660000
H      -48.84850000     -35.25070000     -72.44940000
H      -46.82830000     -32.23250000     -74.51060000
H      -49.06390000     -31.25280000     -70.96480000
H      -49.68760000     -33.67650000     -70.83120000
C      -47.20160000     -30.17590000     -72.73160000
H      -47.38430000     -29.61280000     -71.76650000
H      -47.58330000     -29.60170000     -73.64720000
C      -47.29020000     -34.84170000     -74.57910000
H      -47.85230000     -35.83510000     -74.43680000
H      -47.33580000     -34.46600000     -75.61460000
S      -45.40920000     -30.10170000     -73.13860000
S      -45.44450000     -34.99110000     -74.30620000
C      -44.93920000     -30.71770000     -71.40920000
H      -43.92700000     -30.30880000     -71.13230000
H      -45.71430000     -30.21650000     -70.84120000
C      -45.16570000     -35.34560000     -72.48370000
H      -45.58980000     -36.28410000     -72.28020000
H      -45.58750000     -34.61190000     -71.88120000
C      -43.69920000     -35.23610000     -72.09020000
H      -43.09220000     -36.10820000     -72.42280000
H      -43.26640000     -34.35750000     -72.44940000
C      -44.81340000     -32.20080000     -71.35210000
H      -44.02550000     -32.40720000     -72.13890000
H      -45.74070000     -32.67410000     -71.68240000
C      -44.31890000     -32.71670000     -70.00370000
C      -44.25760000     -31.99900000     -68.83630000
C      -43.79580000     -34.03420000     -69.77260000
H      -44.56490000     -31.02040000     -68.62510000
C      -43.45370000     -34.31400000     -68.46380000
C      -43.54190000     -35.19780000     -70.62790000
C      -42.97500000     -36.22370000     -69.85220000
S      -43.78090000     -32.90500000     -67.39580000
S      -42.70180000     -35.82290000     -68.14210000
H      -42.49700000     -37.06950000     -70.29340000
