40
Properties=species:S:1:pos:R:3 #=T CELL(abcABC):=T 1.889726e+02=T 90.00000=T Traj:=T positionsangstrom=T Step:=T 0=T Bead:=T pbc="F F F"
C      -48.81390000     -34.01400000     -72.75340000
C      -47.71340000     -33.64780000     -73.63720000
C      -47.31760000     -32.31210000     -73.68890000
C      -47.79480000     -31.37740000     -72.72320000
C      -48.76320000     -31.81820000     -71.78670000
C      -49.33500000     -33.14020000     -71.82710000
H      -49.16320000     -35.05410000     -72.88030000
H      -46.53740000     -31.98430000     -74.34380000
H      -49.10140000     -31.04450000     -71.12040000
H      -50.07310000     -33.45430000     -71.07910000
C      -47.21810000     -30.01340000     -72.76060000
H      -47.66770000     -29.65980000     -71.82600000
H      -47.55660000     -29.34260000     -73.47360000
C      -47.20350000     -34.71960000     -74.54600000
H      -47.68050000     -35.69830000     -74.41940000
H      -47.35530000     -34.51850000     -75.60490000
S      -45.39730000     -30.05740000     -72.86340000
S      -45.36160000     -35.07220000     -74.30670000
C      -44.72680000     -30.76360000     -71.32900000
H      -43.62350000     -30.51440000     -71.30510000
H      -45.11860000     -30.20390000     -70.46330000
C      -45.19870000     -35.49780000     -72.53710000
H      -45.68700000     -36.57010000     -72.43220000
H      -45.94110000     -34.89940000     -71.87170000
C      -43.73770000     -35.38310000     -72.10100000
H      -43.20440000     -36.31760000     -72.44370000
H      -43.33510000     -34.55160000     -72.73270000
C      -45.02550000     -32.23020000     -71.25870000
H      -44.74940000     -32.74460000     -72.16640000
H      -46.17230000     -32.34820000     -71.28960000
C      -44.50860000     -32.85700000     -69.91330000
C      -44.53090000     -32.08730000     -68.77010000
C      -43.79100000     -34.10600000     -69.76050000
H      -45.05120000     -31.16930000     -68.62450000
C      -43.29190000     -34.30740000     -68.51010000
C      -43.50720000     -35.26250000     -70.64380000
C      -42.85670000     -36.29250000     -69.93110000
S      -43.63760000     -32.94820000     -67.43730000
S      -42.69040000     -35.95060000     -68.20740000
H      -42.42780000     -37.22350000     -70.32270000
