40
Properties=species:S:1:pos:R:3 #=T CELL(abcABC):=T 1.889726e+02=T 90.00000=T Traj:=T positionsangstrom=T Step:=T 0=T Bead:=T pbc="F F F"
C      -40.64950000     -34.73830000     -72.85430000
C      -41.91260000     -35.13400000     -72.40560000
C      -42.42390000     -34.72240000     -71.15610000
C      -41.59540000     -33.95450000     -70.33690000
C      -40.41500000     -33.45370000     -70.87980000
C      -39.96420000     -33.74400000     -72.14600000
H      -40.39110000     -35.12560000     -73.86510000
H      -43.38110000     -35.04850000     -70.82500000
H      -39.83010000     -32.79120000     -70.27820000
H      -38.96320000     -33.31260000     -72.38360000
C      -42.15040000     -33.58220000     -68.99020000
H      -41.41830000     -33.34340000     -68.23990000
H      -42.84980000     -34.31160000     -68.59670000
C      -42.79490000     -35.95740000     -73.28880000
H      -42.30560000     -36.35990000     -74.13290000
H      -43.44180000     -36.76860000     -72.82410000
S      -43.24030000     -32.07150000     -68.96920000
S      -44.05750000     -34.89560000     -74.07750000
C      -44.97050000     -32.65100000     -69.15740000
H      -45.04130000     -33.44940000     -69.94290000
H      -45.33540000     -33.19290000     -68.22220000
C      -45.34280000     -34.46940000     -72.79500000
H      -45.07720000     -34.92270000     -71.80230000
H      -46.18760000     -35.16230000     -73.09630000
C      -45.69270000     -32.96530000     -72.69810000
H      -45.21240000     -32.46250000     -71.79260000
H      -45.43710000     -32.46870000     -73.62440000
C      -45.94750000     -31.49960000     -69.45220000
H      -45.45570000     -30.79660000     -70.18420000
H      -45.99900000     -30.97390000     -68.48850000
C      -47.33430000     -31.96790000     -69.91980000
C      -48.28200000     -31.95550000     -68.97900000
C      -47.81900000     -32.49590000     -71.21490000
H      -48.19310000     -31.55330000     -68.02170000
C      -49.19760000     -32.77360000     -71.17010000
C      -47.23770000     -33.01610000     -72.43710000
C      -48.16470000     -33.43720000     -73.33840000
S      -49.92180000     -32.43750000     -69.57650000
S      -49.83880000     -33.35720000     -72.71670000
H      -48.01080000     -33.52430000     -74.40690000
