40
Properties=species:S:1:pos:R:3 #=T CELL(abcABC):=T 1.889726e+02=T 90.00000=T Traj:=T positionsangstrom=T Step:=T 0=T Bead:=T pbc="F F F"
C      -48.47410000     -34.65580000     -71.78650000
C      -47.85240000     -34.45140000     -73.04200000
C      -47.63820000     -33.13650000     -73.45100000
C      -47.96160000     -32.07650000     -72.65550000
C      -48.57720000     -32.26110000     -71.41150000
C      -48.84740000     -33.55750000     -71.00070000
H      -48.80970000     -35.68540000     -71.43920000
H      -46.99560000     -32.93210000     -74.32260000
H      -48.72180000     -31.43640000     -70.80810000
H      -49.31490000     -33.75120000     -70.06470000
C      -47.89980000     -30.65100000     -73.10440000
H      -48.33310000     -29.94740000     -72.42210000
H      -48.31730000     -30.39140000     -74.01810000
C      -47.44570000     -35.55970000     -73.95520000
H      -47.86640000     -36.46860000     -73.61780000
H      -47.79030000     -35.51950000     -74.95310000
S      -46.11100000     -30.01160000     -73.32610000
S      -45.58870000     -35.73160000     -74.05220000
C      -45.43020000     -30.66690000     -71.71390000
H      -44.77160000     -29.93830000     -71.32840000
H      -46.25650000     -30.70520000     -70.98840000
C      -45.19640000     -35.59520000     -72.18530000
H      -45.50240000     -36.50370000     -71.66600000
H      -45.76440000     -34.82830000     -71.81120000
C      -43.74420000     -35.30650000     -72.01730000
H      -43.19470000     -36.16890000     -72.22500000
H      -43.40250000     -34.49410000     -72.65470000
C      -44.69910000     -31.99940000     -71.73640000
H      -43.86020000     -31.91860000     -72.43930000
H      -45.37170000     -32.82330000     -72.07110000
C      -44.17460000     -32.39290000     -70.35080000
C      -44.27410000     -31.54980000     -69.21510000
C      -43.53460000     -33.65310000     -70.03470000
H      -44.58600000     -30.50510000     -69.23840000
C      -43.07770000     -33.70150000     -68.67740000
C      -43.26350000     -34.90270000     -70.64760000
C      -42.48940000     -35.79660000     -69.88160000
S      -43.51390000     -32.26370000     -67.79500000
S      -42.12930000     -35.12800000     -68.31550000
H      -42.42990000     -36.87230000     -70.08860000
