40
Properties=species:S:1:pos:R:3 #=T CELL(abcABC):=T 1.889726e+02=T 90.00000=T Traj:=T positionsangstrom=T Step:=T 0=T Bead:=T pbc="F F F"
C      -48.57660000     -34.34650000     -72.35900000
C      -47.81190000     -34.08250000     -73.48270000
C      -47.39020000     -32.75350000     -73.67370000
C      -47.75290000     -31.71910000     -72.75640000
C      -48.54700000     -32.03610000     -71.62630000
C      -48.94280000     -33.37750000     -71.42760000
H      -49.03990000     -35.33520000     -72.11830000
H      -46.92550000     -32.62770000     -74.64360000
H      -48.82070000     -31.32960000     -70.83070000
H      -49.42720000     -33.64540000     -70.52770000
C      -47.39160000     -30.27060000     -73.09490000
H      -47.94560000     -29.55760000     -72.59200000
H      -47.69470000     -30.06630000     -74.11110000
C      -47.21120000     -35.11010000     -74.42100000
H      -47.53340000     -36.05900000     -74.13000000
H      -47.52960000     -34.93910000     -75.42950000
S      -45.56930000     -30.00710000     -73.08180000
S      -45.35890000     -35.13430000     -74.33980000
C      -44.77010000     -30.47830000     -71.52060000
H      -43.85720000     -29.97840000     -71.51430000
H      -45.35800000     -30.08890000     -70.67710000
C      -45.23250000     -35.43630000     -72.55380000
H      -45.40240000     -36.56640000     -72.26760000
H      -45.91740000     -34.81840000     -71.96180000
C      -43.72710000     -35.20150000     -72.12300000
H      -43.15160000     -36.04390000     -72.47010000
H      -43.30040000     -34.37480000     -72.77520000
C      -44.58660000     -31.98780000     -71.34230000
H      -43.75990000     -32.26250000     -72.03060000
H      -45.43050000     -32.54420000     -71.62820000
C      -44.27430000     -32.56290000     -69.97470000
C      -44.38220000     -31.85620000     -68.81600000
C      -43.77170000     -33.94790000     -69.78790000
H      -44.78280000     -30.90090000     -68.62060000
C      -43.39020000     -34.18540000     -68.43620000
C      -43.52350000     -35.06440000     -70.62650000
C      -43.03800000     -36.15890000     -69.89520000
S      -43.77370000     -32.81960000     -67.35370000
S      -42.81630000     -35.75590000     -68.24420000
H      -42.93470000     -37.18730000     -70.23670000
