40
Properties=species:S:1:pos:R:3 #=T CELL(abcABC):=T 1.889726e+02=T 90.00000=T Traj:=T positionsangstrom=T Step:=T 0=T Bead:=T pbc="F F F"
C      -48.32470000     -34.64280000     -71.81360000
C      -47.70580000     -34.43210000     -73.03420000
C      -47.58660000     -33.08990000     -73.52420000
C      -47.96230000     -31.96380000     -72.76050000
C      -48.49010000     -32.23180000     -71.53410000
C      -48.68890000     -33.55260000     -71.05550000
H      -48.52860000     -35.65180000     -71.49400000
H      -47.05990000     -32.86000000     -74.43340000
H      -48.87990000     -31.44340000     -70.78440000
H      -49.21420000     -33.79190000     -70.08820000
C      -47.76300000     -30.56800000     -73.21530000
H      -48.59990000     -29.97520000     -72.76660000
H      -48.02300000     -30.53040000     -74.28120000
C      -47.34940000     -35.61520000     -73.87350000
H      -47.86190000     -36.47710000     -73.46980000
H      -47.78390000     -35.42290000     -74.88340000
S      -45.98990000     -29.84670000     -73.10200000
S      -45.53160000     -35.94660000     -74.04090000
C      -45.41750000     -30.50120000     -71.49600000
H      -44.77620000     -29.80970000     -71.01370000
H      -46.26710000     -30.52450000     -70.83470000
C      -44.80730000     -35.84680000     -72.34920000
H      -44.43180000     -36.75240000     -72.07880000
H      -45.59830000     -35.73190000     -71.64060000
C      -43.70550000     -34.79760000     -72.25310000
H      -42.86330000     -34.96680000     -72.87760000
H      -44.11830000     -33.85890000     -72.64010000
C      -44.79200000     -31.92110000     -71.56630000
H      -44.00730000     -31.90660000     -72.43540000
H      -45.58950000     -32.68260000     -71.70750000
C      -44.13880000     -32.23470000     -70.24960000
C      -44.03940000     -31.45030000     -69.11480000
C      -43.54030000     -33.57880000     -69.94710000
H      -44.61520000     -30.50200000     -69.03070000
C      -43.22150000     -33.79140000     -68.66190000
C      -43.32600000     -34.71290000     -70.84940000
C      -42.78900000     -35.77480000     -70.11370000
S      -43.51920000     -32.36590000     -67.71890000
S      -42.67430000     -35.46910000     -68.39630000
H      -42.34110000     -36.70630000     -70.54220000
