40
Properties=species:S:1:pos:R:3 #=T CELL(abcABC):=T 1.889726e+02=T 90.00000=T Traj:=T positionsangstrom=T Step:=T 0=T Bead:=T pbc="F F F"
C      -48.21460000     -34.64910000     -71.90800000
C      -47.73940000     -34.41700000     -73.18450000
C      -47.60030000     -33.12750000     -73.59180000
C      -47.91800000     -32.01330000     -72.79020000
C      -48.37680000     -32.29480000     -71.45550000
C      -48.54630000     -33.60530000     -71.08350000
H      -48.41480000     -35.70490000     -71.63110000
H      -47.36610000     -32.86760000     -74.64570000
H      -48.74520000     -31.51350000     -70.80830000
H      -48.88950000     -33.85850000     -70.10870000
C      -47.71940000     -30.55980000     -73.34450000
H      -48.22100000     -29.83290000     -72.71390000
H      -47.90420000     -30.51250000     -74.38490000
C      -47.43170000     -35.51190000     -74.10720000
H      -47.98250000     -36.40820000     -73.81010000
H      -47.77500000     -35.20280000     -75.09080000
S      -45.86100000     -30.06980000     -73.12180000
S      -45.57760000     -35.76010000     -74.18580000
C      -45.54750000     -30.63800000     -71.40570000
H      -45.38590000     -29.75720000     -70.81250000
H      -46.44180000     -31.16550000     -71.09690000
C      -44.88140000     -35.89900000     -72.43450000
H      -44.57650000     -36.94930000     -72.31450000
H      -45.67200000     -35.81440000     -71.76720000
C      -43.84020000     -34.83440000     -72.25600000
H      -42.97650000     -35.05010000     -72.91350000
H      -44.31800000     -33.95460000     -72.63140000
C      -44.34940000     -31.57110000     -71.47030000
H      -43.58110000     -31.07860000     -71.94830000
H      -44.57840000     -32.28840000     -72.26170000
C      -44.05940000     -32.22120000     -70.11860000
C      -44.13850000     -31.47800000     -68.94870000
C      -43.70450000     -33.58160000     -69.90010000
H      -44.27500000     -30.44630000     -68.74420000
C      -43.34070000     -33.78060000     -68.53620000
C      -43.49190000     -34.72810000     -70.80030000
C      -42.92190000     -35.76830000     -70.05120000
S      -43.64690000     -32.42680000     -67.58080000
S      -42.58660000     -35.39480000     -68.34510000
H      -42.75060000     -36.77130000     -70.39860000
