40
Properties=species:S:1:pos:R:3 #=T CELL(abcABC):=T 1.889726e+02=T 90.00000=T Traj:=T positionsangstrom=T Step:=T 0=T Bead:=T pbc="F F F"
C      -48.31240000     -34.73480000     -71.69510000
C      -47.81930000     -34.53290000     -73.01180000
C      -47.80260000     -33.20750000     -73.46140000
C      -48.19950000     -32.15430000     -72.63310000
C      -48.72820000     -32.41500000     -71.35390000
C      -48.81040000     -33.66420000     -70.90130000
H      -48.32780000     -35.68760000     -71.22080000
H      -47.41270000     -33.08640000     -74.45620000
H      -49.15860000     -31.54910000     -70.75510000
H      -49.12780000     -33.85680000     -69.85320000
C      -48.01490000     -30.77480000     -73.18730000
H      -48.20220000     -29.90230000     -72.54610000
H      -48.48280000     -30.78650000     -74.20130000
C      -47.33740000     -35.70500000     -73.82290000
H      -47.57860000     -36.62640000     -73.32470000
H      -47.85150000     -35.71740000     -74.76200000
S      -46.22050000     -30.53160000     -73.61000000
S      -45.52080000     -35.59600000     -74.07350000
C      -45.28790000     -30.74050000     -71.94670000
H      -44.31190000     -30.35370000     -72.19050000
H      -45.70850000     -30.07350000     -71.28430000
C      -44.93220000     -35.72160000     -72.23370000
H      -44.97120000     -36.72370000     -72.00070000
H      -45.72100000     -35.15890000     -71.65320000
C      -43.55230000     -35.06390000     -72.12760000
H      -42.81230000     -35.73360000     -72.55030000
H      -43.49170000     -34.16990000     -72.70310000
C      -45.26330000     -32.11810000     -71.39150000
H      -44.84790000     -32.75040000     -72.21310000
H      -46.25300000     -32.60120000     -71.15420000
C      -44.40010000     -32.30670000     -70.18110000
C      -44.38910000     -31.49360000     -69.05620000
C      -43.55590000     -33.49850000     -69.96850000
H      -45.07340000     -30.66060000     -68.89340000
C      -42.98870000     -33.47650000     -68.70370000
C      -43.16970000     -34.69410000     -70.66330000
C      -42.33350000     -35.47620000     -69.93430000
S      -43.53320000     -32.19970000     -67.65460000
S      -41.95620000     -34.83360000     -68.37300000
H      -41.74400000     -36.24790000     -70.39760000
