40
Properties=species:S:1:pos:R:3 #=T CELL(abcABC):=T 1.889726e+02=T 90.00000=T Traj:=T positionsangstrom=T Step:=T 0=T Bead:=T pbc="F F F"
C      -48.33630000     -34.80680000     -71.51280000
C      -47.83210000     -34.67550000     -72.82670000
C      -47.72700000     -33.37270000     -73.32740000
C      -48.26020000     -32.28300000     -72.63620000
C      -48.90060000     -32.45350000     -71.45060000
C      -48.97230000     -33.72460000     -70.91640000
H      -48.49020000     -35.82030000     -71.06530000
H      -47.08850000     -33.18790000     -74.21400000
H      -49.34340000     -31.71940000     -70.72490000
H      -49.42130000     -33.90170000     -69.95460000
C      -48.02460000     -30.89190000     -73.20770000
H      -48.13890000     -30.09790000     -72.48930000
H      -48.66740000     -30.66430000     -74.02800000
C      -47.25240000     -35.89150000     -73.62690000
H      -47.38210000     -36.90520000     -73.09730000
H      -47.81070000     -35.99800000     -74.54550000
S      -46.18570000     -30.57520000     -73.66100000
S      -45.42180000     -35.77790000     -74.01800000
C      -45.25000000     -30.76560000     -72.09230000
H      -44.14960000     -30.71810000     -72.32580000
H      -45.42700000     -29.84580000     -71.49460000
C      -44.85490000     -35.62910000     -72.31060000
H      -44.64060000     -36.57620000     -71.89240000
H      -45.66820000     -35.23610000     -71.69750000
C      -43.55820000     -34.82560000     -72.15700000
H      -42.72860000     -35.32330000     -72.77960000
H      -43.77300000     -33.88360000     -72.64230000
C      -45.51000000     -32.05600000     -71.27500000
H      -45.42140000     -32.94820000     -71.94290000
H      -46.52170000     -31.95760000     -70.92730000
C      -44.57300000     -32.32580000     -70.08640000
C      -44.53310000     -31.49600000     -69.00970000
C      -43.65330000     -33.44360000     -69.90100000
H      -45.18790000     -30.63620000     -68.89040000
C      -42.96150000     -33.38600000     -68.71640000
C      -43.17590000     -34.55330000     -70.70630000
C      -42.23390000     -35.34570000     -70.12990000
S      -43.39650000     -31.98690000     -67.77300000
S      -41.94060000     -34.76610000     -68.43080000
H      -41.83910000     -36.24460000     -70.56020000
