40
Properties=species:S:1:pos:R:3 #=T CELL(abcABC):=T 1.889726e+02=T 90.00000=T Traj:=T positionsangstrom=T Step:=T 0=T Bead:=T pbc="F F F"
C      -48.98380000     -35.01680000     -71.53720000
C      -48.03910000     -35.04770000     -72.57980000
C      -47.80110000     -33.84930000     -73.25260000
C      -48.41680000     -32.68430000     -72.86710000
C      -49.38630000     -32.63650000     -71.86770000
C      -49.67050000     -33.85360000     -71.21960000
H      -49.16070000     -35.90110000     -70.83610000
H      -47.08190000     -33.71560000     -74.05110000
H      -49.89040000     -31.70580000     -71.56570000
H      -50.29510000     -33.72830000     -70.28330000
C      -48.07710000     -31.43130000     -73.64300000
H      -48.65540000     -30.60100000     -73.09440000
H      -48.33660000     -31.37070000     -74.70680000
C      -47.38830000     -36.35220000     -72.90080000
H      -47.42420000     -37.05940000     -72.10530000
H      -47.87720000     -36.77660000     -73.75320000
S      -46.16250000     -31.11270000     -73.69030000
S      -45.61940000     -36.13880000     -73.35560000
C      -45.76060000     -30.91310000     -71.84100000
H      -44.77180000     -30.48620000     -71.88820000
H      -46.48430000     -30.24520000     -71.40680000
C      -44.78210000     -35.64420000     -71.74710000
H      -44.48290000     -36.54100000     -71.22030000
H      -45.46120000     -35.12300000     -71.13470000
C      -43.61520000     -34.72620000     -72.02260000
H      -42.90420000     -35.30050000     -72.56620000
H      -43.93320000     -33.85770000     -72.61600000
C      -45.66200000     -32.27010000     -71.14990000
H      -45.34140000     -33.05460000     -71.80460000
H      -46.61690000     -32.58340000     -70.82670000
C      -44.70390000     -32.32090000     -69.97250000
C      -44.55290000     -31.27180000     -69.04610000
C      -43.49610000     -33.21030000     -69.94880000
H      -45.28200000     -30.50310000     -68.80410000
C      -42.62480000     -32.85870000     -68.93820000
C      -42.96420000     -34.25510000     -70.76500000
C      -41.72360000     -34.70100000     -70.44270000
S      -43.07500000     -31.44800000     -68.02690000
S      -41.21500000     -33.91610000     -68.91710000
H      -41.16410000     -35.40370000     -70.95810000
