40
Properties=species:S:1:pos:R:3 #=T CELL(abcABC):=T 1.889726e+02=T 90.00000=T Traj:=T positionsangstrom=T Step:=T 0=T Bead:=T pbc="F F F"
C      -48.53010000     -35.27890000     -71.03610000
C      -47.75790000     -35.51240000     -72.19130000
C      -47.60330000     -34.45700000     -73.07050000
C      -48.21900000     -33.21580000     -72.90510000
C      -49.00860000     -33.04950000     -71.76660000
C      -49.18050000     -34.05560000     -70.83730000
H      -48.52020000     -35.96040000     -70.27950000
H      -47.04980000     -34.68510000     -73.94270000
H      -49.32070000     -32.00400000     -71.54480000
H      -49.77610000     -33.85610000     -69.99370000
C      -48.05700000     -32.04820000     -73.86200000
H      -48.58250000     -31.19770000     -73.42000000
H      -48.62840000     -32.34720000     -74.77870000
C      -47.13110000     -36.82340000     -72.48330000
H      -47.42240000     -37.56900000     -71.72200000
H      -47.64940000     -37.30470000     -73.36990000
S      -46.32040000     -31.66280000     -74.34760000
S      -45.37010000     -36.73780000     -72.88860000
C      -45.60650000     -31.00670000     -72.69930000
H      -44.54300000     -30.81190000     -72.84110000
H      -45.94050000     -30.02260000     -72.48240000
C      -44.65850000     -35.77120000     -71.51110000
H      -44.09320000     -36.44700000     -70.81680000
H      -45.36550000     -35.42070000     -70.84440000
C      -43.60570000     -34.64220000     -71.82680000
H      -42.79950000     -35.02800000     -72.40570000
H      -44.02740000     -34.00820000     -72.64780000
C      -45.82760000     -31.89040000     -71.48190000
H      -46.05620000     -32.94080000     -71.74840000
H      -46.69990000     -31.46120000     -70.94520000
C      -44.68460000     -31.73890000     -70.40350000
C      -44.84720000     -30.79160000     -69.40410000
C      -43.53320000     -32.61160000     -70.16430000
H      -45.59450000     -30.06460000     -69.35420000
C      -42.85660000     -32.17660000     -69.00790000
C      -43.05550000     -33.86420000     -70.68560000
C      -41.97650000     -34.30470000     -69.94610000
S      -43.45560000     -30.78590000     -68.27910000
S      -41.54590000     -33.28140000     -68.65790000
H      -41.34770000     -35.19820000     -70.12020000
