40
Properties=species:S:1:pos:R:3 #=T CELL(abcABC):=T 1.889726e+02=T 90.00000=T Traj:=T positionsangstrom=T Step:=T 0=T Bead:=T pbc="F F F"
C      -48.50350000     -35.46170000     -71.14390000
C      -47.69190000     -35.67650000     -72.27860000
C      -47.54210000     -34.63580000     -73.19100000
C      -48.15130000     -33.39530000     -72.97220000
C      -48.99190000     -33.24330000     -71.86550000
C      -49.19190000     -34.25760000     -70.96580000
H      -48.76160000     -36.28730000     -70.44400000
H      -46.84360000     -34.64940000     -74.04000000
H      -49.58980000     -32.41060000     -71.74430000
H      -49.82740000     -34.01930000     -70.09770000
C      -48.08310000     -32.22970000     -73.94650000
H      -48.74070000     -31.42510000     -73.57390000
H      -48.46900000     -32.54570000     -74.87610000
C      -46.99590000     -36.99040000     -72.31510000
H      -47.07830000     -37.69210000     -71.42940000
H      -47.42010000     -37.52280000     -73.16930000
S      -46.40160000     -31.52390000     -74.29960000
S      -45.14580000     -36.84320000     -72.66630000
C      -45.81270000     -30.82630000     -72.65270000
H      -44.88050000     -30.37320000     -73.01960000
H      -46.40990000     -29.95230000     -72.38720000
C      -44.62030000     -35.62330000     -71.43420000
H      -44.16390000     -36.13980000     -70.58250000
H      -45.50150000     -35.07690000     -71.02610000
C      -43.52650000     -34.60310000     -71.89400000
H      -42.71060000     -35.24270000     -72.23320000
H      -43.92570000     -33.98740000     -72.65650000
C      -45.74030000     -31.90960000     -71.53030000
H      -45.70610000     -32.93690000     -71.94770000
H      -46.69960000     -31.85170000     -71.03320000
C      -44.68330000     -31.61720000     -70.49120000
C      -44.82600000     -30.64710000     -69.53190000
C      -43.55730000     -32.50980000     -70.24380000
H      -45.61290000     -29.91760000     -69.40450000
C      -42.87070000     -32.11460000     -69.09930000
C      -43.02270000     -33.77900000     -70.71320000
C      -41.95640000     -34.22810000     -69.96200000
S      -43.59690000     -30.64910000     -68.31270000
S      -41.67810000     -33.23550000     -68.52540000
H      -41.35780000     -35.09930000     -70.03830000
