40
Properties=species:S:1:pos:R:3 #=T CELL(abcABC):=T 1.889726e+02=T 90.00000=T Traj:=T positionsangstrom=T Step:=T 0=T Bead:=T pbc="F F F"
C      -48.88640000     -35.35490000     -71.36530000
C      -48.01410000     -35.35400000     -72.47140000
C      -47.74270000     -34.22700000     -73.22760000
C      -48.30480000     -32.96990000     -72.78880000
C      -49.16140000     -33.00210000     -71.67730000
C      -49.40990000     -34.13770000     -70.93670000
H      -48.92010000     -36.16710000     -70.67810000
H      -47.08670000     -34.25570000     -74.04960000
H      -49.64740000     -32.04350000     -71.29760000
H      -50.21820000     -34.10420000     -70.19620000
C      -47.97760000     -31.69850000     -73.44400000
H      -48.37570000     -30.84510000     -72.88600000
H      -48.60190000     -31.57090000     -74.35210000
C      -47.19920000     -36.66470000     -72.79280000
H      -47.33010000     -37.48660000     -72.09540000
H      -47.50560000     -36.89790000     -73.78310000
S      -46.21690000     -31.52930000     -74.08550000
S      -45.38620000     -36.46490000     -73.01280000
C      -45.32820000     -31.02370000     -72.51590000
H      -44.24170000     -31.09270000     -72.75780000
H      -45.59030000     -29.96450000     -72.34380000
C      -44.82680000     -35.49300000     -71.53770000
H      -44.51660000     -36.20690000     -70.81910000
H      -45.61950000     -34.85400000     -71.17760000
C      -43.72090000     -34.57010000     -71.99200000
H      -43.03620000     -35.21690000     -72.59640000
H      -44.13930000     -33.89080000     -72.70910000
C      -45.78960000     -31.77430000     -71.22120000
H      -46.04550000     -32.77740000     -71.52420000
H      -46.67330000     -31.27240000     -70.89560000
C      -44.74190000     -31.85330000     -70.18770000
C      -44.78910000     -31.05600000     -69.05640000
C      -43.60830000     -32.75180000     -70.11400000
H      -45.53610000     -30.28160000     -68.88860000
C      -42.76700000     -32.56580000     -69.06170000
C      -43.02870000     -33.92890000     -70.86150000
C      -41.84120000     -34.33710000     -70.38130000
S      -43.44490000     -31.31740000     -67.98380000
S      -41.24050000     -33.40560000     -68.93980000
H      -41.26930000     -35.13790000     -70.84860000
