40
Properties=species:S:1:pos:R:3 #=T CELL(abcABC):=T 1.889726e+02=T 90.00000=T Traj:=T positionsangstrom=T Step:=T 0=T Bead:=T pbc="F F F"
C      -48.52230000     -35.36980000     -71.04830000
C      -47.67230000     -35.56730000     -72.14770000
C      -47.59940000     -34.48410000     -73.10480000
C      -48.16960000     -33.29670000     -72.87520000
C      -49.02470000     -33.16030000     -71.75560000
C      -49.24660000     -34.18960000     -70.88890000
H      -48.68260000     -36.20990000     -70.46430000
H      -47.02110000     -34.55520000     -73.96650000
H      -49.63160000     -32.31150000     -71.57930000
H      -49.93640000     -34.01930000     -70.03990000
C      -48.05370000     -32.21400000     -73.90470000
H      -48.65460000     -31.31550000     -73.80330000
H      -48.33350000     -32.61600000     -74.91640000
C      -46.99010000     -36.93620000     -72.33370000
H      -46.95910000     -37.45560000     -71.40860000
H      -47.46650000     -37.49090000     -73.18690000
S      -46.32670000     -31.60280000     -74.28320000
S      -45.19200000     -36.67580000     -72.74620000
C      -45.67550000     -30.95060000     -72.71190000
H      -44.60210000     -30.86840000     -72.92650000
H      -46.17060000     -30.06180000     -72.26570000
C      -44.67120000     -35.53920000     -71.35160000
H      -44.40740000     -36.21960000     -70.56940000
H      -45.60600000     -34.95640000     -71.16050000
C      -43.62640000     -34.57500000     -71.89320000
H      -42.74470000     -35.14420000     -72.31200000
H      -43.98590000     -33.90900000     -72.68020000
C      -45.67750000     -31.96930000     -71.52790000
H      -45.69140000     -33.01460000     -71.89110000
H      -46.61230000     -31.87970000     -71.04140000
C      -44.67840000     -31.71610000     -70.46020000
C      -44.72960000     -30.62730000     -69.66110000
C      -43.62100000     -32.65440000     -70.13570000
H      -45.46470000     -29.87210000     -69.59760000
C      -43.03330000     -32.29670000     -68.92700000
C      -43.13310000     -33.86570000     -70.70600000
C      -42.05390000     -34.33020000     -70.05640000
S      -43.53580000     -30.70660000     -68.37150000
S      -41.61800000     -33.26620000     -68.67120000
H      -41.60170000     -35.31150000     -70.20410000
