40
Properties=species:S:1:pos:R:3 #=T CELL(abcABC):=T 1.889726e+02=T 90.00000=T Traj:=T positionsangstrom=T Step:=T 0=T Bead:=T pbc="F F F"
C      -44.88910000     -36.68730000     -73.49380000
C      -44.01570000     -36.00370000     -72.57930000
C      -44.25500000     -36.06210000     -71.16280000
C      -45.31300000     -36.87460000     -70.64300000
C      -46.23740000     -37.31010000     -71.59470000
C      -46.06250000     -37.23280000     -72.98880000
H      -44.66640000     -36.46970000     -74.54780000
H      -43.36450000     -35.72610000     -70.66310000
H      -47.11220000     -37.79730000     -71.13470000
H      -46.86810000     -37.67200000     -73.57760000
C      -45.59560000     -37.10320000     -69.20460000
H      -44.71320000     -37.55760000     -68.78180000
H      -46.47240000     -37.76370000     -69.09560000
C      -42.83960000     -35.30980000     -73.08130000
H      -42.38530000     -34.75170000     -72.33370000
H      -42.18060000     -36.01760000     -73.44640000
S      -45.82680000     -35.46380000     -68.27800000
S      -43.10510000     -34.11600000     -74.45560000
C      -47.16870000     -34.61050000     -69.29790000
H      -47.83290000     -35.42900000     -69.60460000
H      -47.70910000     -34.15460000     -68.49970000
C      -44.01030000     -32.76490000     -73.53790000
H      -43.49820000     -31.89000000     -73.97290000
H      -43.73270000     -32.81860000     -72.47370000
C      -45.51380000     -32.48010000     -73.51750000
H      -45.89850000     -32.22660000     -74.49780000
H      -45.99390000     -33.38610000     -73.13060000
C      -46.63230000     -33.70530000     -70.51090000
H      -47.41600000     -33.70710000     -71.25020000
H      -45.82700000     -34.34890000     -70.80680000
C      -46.11960000     -32.32360000     -70.14770000
C      -46.24830000     -31.79080000     -68.88740000
C      -45.70960000     -31.29950000     -71.07110000
H      -46.49860000     -32.32640000     -67.99040000
C      -45.67320000     -29.99620000     -70.57250000
C      -45.76290000     -31.27950000     -72.58310000
C      -45.55720000     -29.91100000     -73.05410000
S      -45.86220000     -30.07250000     -68.82010000
S      -45.59210000     -28.71160000     -71.73560000
H      -45.43310000     -29.56860000     -74.04760000
