40
Properties=species:S:1:pos:R:3 #=T CELL(abcABC):=T 1.889726e+02=T 90.00000=T Traj:=T positionsangstrom=T Step:=T 0=T Bead:=T pbc="F F F"
C      -48.86200000     -35.15310000     -71.36190000
C      -47.96180000     -35.22130000     -72.45120000
C      -47.71810000     -34.06600000     -73.22720000
C      -48.34370000     -32.82630000     -72.86060000
C      -49.26950000     -32.79420000     -71.79770000
C      -49.51940000     -33.98810000     -71.07000000
H      -49.03000000     -36.08520000     -70.76140000
H      -47.10450000     -34.17740000     -74.15620000
H      -49.81500000     -31.89490000     -71.55480000
H      -50.19740000     -33.95250000     -70.25850000
C      -48.02430000     -31.56800000     -73.60170000
H      -48.53730000     -30.76210000     -73.08510000
H      -48.32960000     -31.70950000     -74.64840000
C      -47.29790000     -36.51270000     -72.74090000
H      -47.48560000     -37.26330000     -71.98060000
H      -47.80050000     -37.01070000     -73.59630000
S      -46.25740000     -31.09980000     -73.84850000
S      -45.47610000     -36.52780000     -73.11790000
C      -45.39980000     -30.99480000     -72.17920000
H      -44.33130000     -31.17740000     -72.31620000
H      -45.50380000     -29.90310000     -71.86380000
C      -44.72640000     -35.62020000     -71.63870000
H      -44.22580000     -36.42990000     -71.05810000
H      -45.44820000     -35.10530000     -71.04810000
C      -43.70140000     -34.56520000     -72.17870000
H      -43.00730000     -35.06340000     -72.87010000
H      -44.32550000     -33.76850000     -72.68930000
C      -45.82340000     -32.04980000     -71.11490000
H      -46.07140000     -33.04670000     -71.55920000
H      -46.73860000     -31.62270000     -70.72310000
C      -44.69130000     -32.11230000     -70.10860000
C      -44.68930000     -31.23710000     -69.03110000
C      -43.57060000     -32.98550000     -70.10170000
H      -45.43980000     -30.44040000     -68.94870000
C      -42.72640000     -32.75350000     -68.94550000
C      -42.99770000     -34.02430000     -70.94380000
C      -41.83840000     -34.48860000     -70.44070000
S      -43.29020000     -31.35610000     -68.02000000
S      -41.25040000     -33.64290000     -68.96990000
H      -41.14360000     -35.17460000     -70.95390000
