40
Properties=species:S:1:pos:R:3 #=T CELL(abcABC):=T 1.889726e+02=T 90.00000=T Traj:=T positionsangstrom=T Step:=T 0=T Bead:=T pbc="F F F"
C      -48.36990000     -35.56450000     -71.24760000
C      -47.68270000     -35.69410000     -72.44720000
C      -47.74170000     -34.57030000     -73.36320000
C      -48.37380000     -33.34610000     -73.06680000
C      -49.09260000     -33.36470000     -71.86210000
C      -49.07560000     -34.40820000     -70.91960000
H      -48.33660000     -36.31080000     -70.49470000
H      -46.93620000     -34.71780000     -74.12610000
H      -49.68870000     -32.40870000     -71.71520000
H      -49.62290000     -34.50220000     -70.07660000
C      -48.26240000     -32.08780000     -73.89130000
H      -48.79670000     -31.26420000     -73.45390000
H      -48.69570000     -32.13760000     -74.92850000
C      -46.93320000     -36.93170000     -72.78740000
H      -47.16730000     -37.65010000     -72.01250000
H      -46.99540000     -37.40000000     -73.84150000
S      -46.49250000     -31.65200000     -74.15070000
S      -45.01900000     -36.81030000     -72.68130000
C      -45.95240000     -31.14800000     -72.45620000
H      -44.91590000     -30.90770000     -72.66160000
H      -46.65180000     -30.33540000     -72.14760000
C      -44.70870000     -35.59170000     -71.34650000
H      -44.63230000     -36.21250000     -70.46690000
H      -45.63300000     -35.00350000     -71.26180000
C      -43.44650000     -34.75420000     -71.64590000
H      -42.70700000     -35.42440000     -71.91450000
H      -43.75780000     -34.25700000     -72.55520000
C      -45.90890000     -32.19330000     -71.32010000
H      -45.55720000     -33.09060000     -71.76940000
H      -46.88850000     -32.45440000     -70.88970000
C      -44.84060000     -31.88420000     -70.32770000
C      -44.94220000     -30.71420000     -69.62870000
C      -43.68870000     -32.68930000     -69.99800000
H      -45.70590000     -29.91570000     -69.75450000
C      -42.86190000     -31.98610000     -69.11660000
C      -42.93470000     -33.83480000     -70.53610000
C      -41.72750000     -34.00010000     -69.91350000
S      -43.60300000     -30.51790000     -68.50470000
S      -41.41340000     -32.83530000     -68.58690000
H      -41.12830000     -34.92190000     -70.08180000
