40
Properties=species:S:1:pos:R:3 #=T CELL(abcABC):=T 1.889726e+02=T 90.00000=T Traj:=T positionsangstrom=T Step:=T 0=T Bead:=T pbc="F F F"
C      -41.81840000     -34.25350000     -70.49590000
C      -42.31220000     -35.10980000     -71.48720000
C      -42.56930000     -34.59670000     -72.76350000
C      -42.26950000     -33.26730000     -73.04360000
C      -41.79260000     -32.41560000     -72.05410000
C      -41.46200000     -32.94970000     -70.84780000
H      -41.65860000     -34.72760000     -69.51490000
H      -42.93860000     -35.22710000     -73.58100000
H      -41.48100000     -31.42100000     -72.41640000
H      -41.19440000     -32.32050000     -69.97990000
C      -42.70190000     -32.78220000     -74.41760000
H      -42.05430000     -33.13220000     -75.25700000
H      -42.79240000     -31.70780000     -74.50180000
C      -42.78450000     -36.48760000     -71.18410000
H      -42.35710000     -37.15250000     -71.95820000
H      -42.54210000     -36.87040000     -70.24760000
S      -44.44480000     -33.27690000     -74.84630000
S      -44.63660000     -36.61560000     -71.40650000
C      -45.15390000     -32.25510000     -73.40720000
H      -44.41250000     -32.42420000     -72.62490000
H      -45.17910000     -31.18650000     -73.65320000
C      -45.43120000     -35.24260000     -70.44370000
H      -45.00850000     -34.25810000     -70.65740000
H      -45.09090000     -35.43420000     -69.36790000
C      -46.95060000     -35.31850000     -70.47260000
H      -47.33440000     -35.44980000     -71.42470000
H      -47.26900000     -36.14930000     -69.81440000
C      -46.57290000     -32.82360000     -73.00700000
H      -46.49520000     -33.88930000     -72.82230000
H      -47.29330000     -32.72390000     -73.80760000
C      -47.03860000     -32.13710000     -71.71150000
C      -47.25850000     -30.77750000     -71.67680000
C      -47.46720000     -32.72600000     -70.40870000
H      -47.17600000     -30.06930000     -72.48750000
C      -47.73480000     -31.76710000     -69.43960000
C      -47.52120000     -34.03520000     -69.80050000
C      -48.08090000     -34.03120000     -68.53660000
S      -47.65170000     -30.17590000     -70.08490000
S      -48.19140000     -32.41510000     -67.90860000
H      -48.25140000     -34.81360000     -67.82730000
