40
Properties=species:S:1:pos:R:3 #=T CELL(abcABC):=T 1.889726e+02=T 90.00000=T Traj:=T positionsangstrom=T Step:=T 0=T Bead:=T pbc="F F F"
C      -41.88440000     -34.27240000     -70.41910000
C      -42.52580000     -35.07830000     -71.35830000
C      -42.67550000     -34.55320000     -72.69960000
C      -42.14030000     -33.30330000     -73.00200000
C      -41.44170000     -32.54680000     -72.08670000
C      -41.33580000     -32.96240000     -70.77960000
H      -41.84900000     -34.61460000     -69.36810000
H      -43.21740000     -35.09290000     -73.44600000
H      -41.17520000     -31.51990000     -72.37910000
H      -40.87190000     -32.27150000     -70.09030000
C      -42.55300000     -32.74980000     -74.37530000
H      -41.99540000     -33.21990000     -75.18040000
H      -42.28650000     -31.69380000     -74.49010000
C      -43.08840000     -36.38930000     -70.98580000
H      -42.48060000     -37.22360000     -71.48520000
H      -43.08210000     -36.53590000     -69.89030000
S      -44.36100000     -33.09950000     -74.74220000
S      -44.85730000     -36.60180000     -71.64030000
C      -45.32990000     -32.32100000     -73.43910000
H      -44.66230000     -32.27610000     -72.53270000
H      -45.49950000     -31.25540000     -73.60480000
C      -45.54520000     -35.34770000     -70.46990000
H      -45.29390000     -34.35250000     -70.84710000
H      -45.24160000     -35.60470000     -69.52560000
C      -47.10290000     -35.29360000     -70.47950000
H      -47.31450000     -35.29220000     -71.58900000
H      -47.68160000     -36.15800000     -70.16970000
C      -46.64660000     -32.95830000     -72.89790000
H      -46.46820000     -33.98860000     -72.58350000
H      -47.43600000     -32.91010000     -73.69440000
C      -47.03610000     -32.18500000     -71.72060000
C      -46.97410000     -30.82290000     -71.63590000
C      -47.42220000     -32.78700000     -70.45530000
H      -46.59930000     -30.14130000     -72.43670000
C      -47.76330000     -31.80220000     -69.55260000
C      -47.54760000     -34.06130000     -69.85720000
C      -47.85100000     -34.05210000     -68.53730000
S      -47.52800000     -30.18350000     -70.06720000
S      -48.18480000     -32.40440000     -67.98660000
H      -47.84020000     -34.90050000     -67.90470000
