40
Properties=species:S:1:pos:R:3 #=T CELL(abcABC):=T 1.889726e+02=T 90.00000=T Traj:=T positionsangstrom=T Step:=T 0=T Bead:=T pbc="F F F"
C      -42.02330000     -34.73980000     -70.59200000
C      -42.54190000     -35.49210000     -71.63970000
C      -42.80840000     -34.82300000     -72.86260000
C      -42.45980000     -33.52010000     -73.05080000
C      -41.79460000     -32.79250000     -71.94150000
C      -41.46720000     -33.47560000     -70.80000000
H      -41.83760000     -35.17020000     -69.63140000
H      -43.34210000     -35.44810000     -73.54210000
H      -41.52760000     -31.73500000     -72.05360000
H      -40.95420000     -33.00850000     -69.99250000
C      -42.62660000     -32.76480000     -74.29630000
H      -42.07170000     -33.31600000     -75.03930000
H      -42.14510000     -31.77610000     -74.22980000
C      -43.03610000     -36.92170000     -71.39040000
H      -42.74350000     -37.60300000     -72.17440000
H      -42.59970000     -37.26050000     -70.44080000
S      -44.35420000     -32.50510000     -74.90060000
S      -44.94360000     -37.14600000     -71.25970000
C      -45.18830000     -31.53870000     -73.53910000
H      -44.46810000     -30.80770000     -72.98420000
H      -45.88510000     -30.92710000     -74.14030000
C      -45.58250000     -35.71630000     -70.27470000
H      -44.75960000     -34.92030000     -70.31660000
H      -45.81060000     -36.01110000     -69.21770000
C      -46.84170000     -35.17000000     -70.90790000
H      -46.70180000     -34.85510000     -71.96000000
H      -47.76180000     -35.92870000     -70.91180000
C      -45.83870000     -32.46670000     -72.57410000
H      -45.13670000     -33.07550000     -72.05700000
H      -46.57090000     -33.11180000     -73.09410000
C      -46.63490000     -31.74570000     -71.54500000
C      -46.64670000     -30.41650000     -71.21690000
C      -47.20270000     -32.52000000     -70.47110000
H      -46.22310000     -29.67460000     -71.84640000
C      -47.85110000     -31.66810000     -69.53660000
C      -47.28300000     -33.91570000     -70.10490000
C      -47.93420000     -34.06800000     -68.89710000
S      -47.62160000     -29.97210000     -69.74770000
S      -48.50240000     -32.54660000     -68.17020000
H      -47.97260000     -35.02460000     -68.38620000
