40
Properties=species:S:1:pos:R:3 #=T CELL(abcABC):=T 1.889726e+02=T 90.00000=T Traj:=T positionsangstrom=T Step:=T 0=T Bead:=T pbc="F F F"
C      -47.94200000     -33.25790000     -74.22550000
C      -46.60410000     -33.32390000     -74.58940000
C      -45.85290000     -34.46500000     -74.26980000
C      -46.43390000     -35.51670000     -73.60270000
C      -47.85780000     -35.49130000     -73.42480000
C      -48.58970000     -34.39000000     -73.89310000
H      -48.36960000     -32.19320000     -74.34490000
H      -44.82060000     -34.46010000     -74.64190000
H      -48.45520000     -36.23150000     -72.85100000
H      -49.63830000     -34.43460000     -73.72180000
C      -45.72930000     -36.78240000     -73.38810000
H      -44.59840000     -36.62540000     -73.69800000
H      -46.14600000     -37.52400000     -74.07310000
C      -45.93280000     -32.05890000     -74.96470000
H      -44.89150000     -32.34350000     -75.08950000
H      -46.37790000     -31.63060000     -75.93540000
S      -45.92000000     -37.40050000     -71.68990000
S      -45.99790000     -30.57290000     -73.88890000
C      -45.03290000     -36.04770000     -70.65610000
H      -45.11650000     -36.38230000     -69.61520000
H      -43.99980000     -35.91880000     -71.10510000
C      -45.54360000     -31.24240000     -72.13440000
H      -46.33640000     -31.98080000     -71.83790000
H      -45.59060000     -30.40670000     -71.42660000
C      -44.15720000     -31.85470000     -71.96600000
H      -44.04760000     -32.86140000     -72.29010000
H      -43.44990000     -31.26510000     -72.59820000
C      -45.69770000     -34.70390000     -70.57730000
H      -46.73790000     -34.92020000     -70.26170000
H      -45.65010000     -34.03070000     -71.55900000
C      -45.01780000     -33.86340000     -69.42050000
C      -45.26730000     -34.24120000     -68.14050000
C      -44.26270000     -32.60090000     -69.47000000
H      -45.82130000     -35.14900000     -67.91700000
C      -43.85860000     -32.21060000     -68.22990000
C      -43.74050000     -31.66760000     -70.49090000
C      -42.96220000     -30.66070000     -70.02360000
S      -44.42280000     -33.22340000     -66.95500000
S      -42.81480000     -30.78410000     -68.25270000
H      -42.39890000     -29.87220000     -70.50980000
