40
Properties=species:S:1:pos:R:3 #=T CELL(abcABC):=T 1.889726e+02=T 90.00000=T Traj:=T positionsangstrom=T Step:=T 0=T Bead:=T pbc="F F F"
C      -43.95470000     -37.28200000     -71.69340000
C      -45.29090000     -36.94870000     -71.35650000
C      -46.09890000     -36.32130000     -72.32860000
C      -45.58320000     -35.89080000     -73.59910000
C      -44.24990000     -36.22290000     -73.83500000
C      -43.45910000     -36.98020000     -72.96710000
H      -43.33860000     -37.92540000     -70.98380000
H      -46.99110000     -35.90860000     -71.93320000
H      -43.87540000     -36.07960000     -74.83520000
H      -42.50020000     -37.19880000     -73.36900000
C      -46.52420000     -35.35480000     -74.67460000
H      -47.13050000     -36.16460000     -75.06680000
H      -46.05160000     -35.03930000     -75.58210000
C      -45.90540000     -37.21620000     -70.01330000
H      -46.80890000     -37.84880000     -70.13540000
H      -45.15850000     -37.63560000     -69.22900000
S      -47.61490000     -33.98260000     -74.13120000
S      -46.67510000     -35.57870000     -69.35130000
C      -46.38320000     -32.83200000     -73.39720000
H      -45.42570000     -33.26290000     -73.42480000
H      -46.24080000     -31.92120000     -73.98060000
C      -45.51330000     -34.19840000     -68.90050000
H      -45.16650000     -34.35170000     -67.86060000
H      -46.32990000     -33.50870000     -68.76440000
C      -44.48240000     -33.81660000     -69.92140000
H      -43.60640000     -34.50910000     -69.82260000
H      -44.85890000     -34.08260000     -70.92770000
C      -46.83760000     -32.39230000     -71.97700000
H      -46.89440000     -33.15760000     -71.18370000
H      -47.85530000     -31.97770000     -72.01670000
C      -45.95260000     -31.20810000     -71.40820000
C      -46.25270000     -29.92240000     -71.76260000
C      -44.83390000     -31.36310000     -70.42770000
H      -47.08700000     -29.58380000     -72.46300000
C      -44.23930000     -30.14760000     -70.18150000
C      -44.06690000     -32.38720000     -69.75690000
C      -43.12670000     -31.90140000     -68.95060000
S      -45.02430000     -28.78820000     -71.07380000
S      -42.88210000     -30.17890000     -69.02230000
H      -42.46830000     -32.50250000     -68.33630000
