40
Properties=species:S:1:pos:R:3 #=T CELL(abcABC):=T 1.889726e+02=T 90.00000=T Traj:=T positionsangstrom=T Step:=T 0=T Bead:=T pbc="F F F"
C      -41.55530000     -34.18370000     -70.63500000
C      -42.20630000     -35.13410000     -71.45120000
C      -42.61760000     -34.82020000     -72.72660000
C      -42.29830000     -33.58360000     -73.31450000
C      -41.57450000     -32.66820000     -72.51130000
C      -41.24300000     -32.94810000     -71.19420000
H      -41.43380000     -34.37510000     -69.56490000
H      -43.19250000     -35.46500000     -73.36420000
H      -41.19970000     -31.62300000     -72.83500000
H      -40.68940000     -32.19320000     -70.68900000
C      -42.71360000     -33.10930000     -74.67110000
H      -42.50080000     -33.87910000     -75.40170000
H      -42.14750000     -32.16850000     -74.91740000
C      -42.44880000     -36.51900000     -70.93130000
H      -42.05720000     -37.34650000     -71.58650000
H      -41.83120000     -36.55790000     -70.01020000
S      -44.52850000     -32.76340000     -74.77690000
S      -44.23090000     -36.68730000     -70.63310000
C      -45.07430000     -32.27960000     -73.05420000
H      -44.47450000     -32.81450000     -72.29540000
H      -45.01410000     -31.21180000     -72.98150000
C      -44.84450000     -34.97780000     -70.45080000
H      -44.49260000     -34.49510000     -71.32650000
H      -44.45730000     -34.47650000     -69.57930000
C      -46.37390000     -35.16150000     -70.26150000
H      -46.80490000     -35.44370000     -71.20320000
H      -46.44330000     -36.06780000     -69.53820000
C      -46.52790000     -32.71070000     -72.98300000
H      -46.59750000     -33.83910000     -72.97920000
H      -46.97360000     -32.40040000     -73.93660000
C      -47.32430000     -32.12940000     -71.83920000
C      -47.93610000     -30.87550000     -71.90820000
C      -47.43090000     -32.69930000     -70.50170000
H      -47.92160000     -30.21810000     -72.85750000
C      -48.14310000     -31.86100000     -69.66820000
C      -47.06550000     -33.94870000     -69.69810000
C      -47.55230000     -33.97700000     -68.45960000
S      -48.69930000     -30.38800000     -70.43100000
S      -48.36510000     -32.40400000     -67.98010000
H      -47.40520000     -34.77090000     -67.75490000
