40
Properties=species:S:1:pos:R:3 #=T CELL(abcABC):=T 1.889726e+02=T 90.00000=T Traj:=T positionsangstrom=T Step:=T 0=T Bead:=T pbc="F F F"
C      -41.86110000     -33.12760000     -71.05130000
C      -42.29360000     -34.44060000     -71.31400000
C      -42.74110000     -34.72560000     -72.62000000
C      -43.03340000     -33.64970000     -73.50860000
C      -42.73570000     -32.37350000     -73.16090000
C      -42.16680000     -32.10450000     -71.90430000
H      -41.35050000     -32.82480000     -70.13330000
H      -43.00880000     -35.80640000     -72.95170000
H      -43.00970000     -31.43370000     -73.80240000
H      -41.96880000     -31.07730000     -71.65560000
C      -43.47690000     -33.97060000     -74.87530000
H      -43.03130000     -34.79860000     -75.38160000
H      -43.57610000     -33.09380000     -75.51240000
C      -42.01550000     -35.64060000     -70.41820000
H      -41.58200000     -36.41130000     -71.05400000
H      -41.29830000     -35.54520000     -69.62560000
S      -45.28020000     -34.56510000     -74.80720000
S      -43.52050000     -36.48050000     -69.80910000
C      -45.93460000     -33.18550000     -73.75740000
H      -45.13190000     -32.96210000     -73.07080000
H      -46.16600000     -32.27880000     -74.28010000
C      -44.62710000     -35.20360000     -69.11040000
H      -44.11220000     -34.40090000     -68.74540000
H      -45.21310000     -35.68700000     -68.28670000
C      -45.62200000     -34.61650000     -70.22150000
H      -45.04450000     -34.40280000     -71.10640000
H      -46.19010000     -35.47730000     -70.58270000
C      -47.20620000     -33.53660000     -72.90940000
H      -47.02430000     -34.47470000     -72.45520000
H      -48.09150000     -33.71000000     -73.51880000
C      -47.58500000     -32.45100000     -71.89190000
C      -48.35100000     -31.40450000     -72.19660000
C      -47.15720000     -32.55840000     -70.51210000
H      -48.95590000     -31.26850000     -73.08570000
C      -47.61940000     -31.46950000     -69.78900000
C      -46.43430000     -33.48660000     -69.70790000
C      -46.40850000     -33.09820000     -68.41130000
S      -48.62190000     -30.44410000     -70.71650000
S      -47.36800000     -31.70990000     -68.07540000
H      -45.87720000     -33.55940000     -67.59700000
