40
Properties=species:S:1:pos:R:3 #=T CELL(abcABC):=T 1.889726e+02=T 90.00000=T Traj:=T positionsangstrom=T Step:=T 0=T Bead:=T pbc="F F F"
C      -42.01570000     -33.21480000     -70.94340000
C      -42.22020000     -34.54480000     -71.42090000
C      -42.67340000     -34.76740000     -72.71120000
C      -42.80080000     -33.68070000     -73.55670000
C      -42.50580000     -32.34580000     -73.10340000
C      -42.05070000     -32.17860000     -71.80200000
H      -41.58620000     -33.00190000     -69.94080000
H      -42.96760000     -35.78740000     -72.95000000
H      -42.51980000     -31.49390000     -73.78780000
H      -41.67910000     -31.16760000     -71.45030000
C      -43.45790000     -33.92260000     -74.91030000
H      -42.93990000     -34.80630000     -75.43530000
H      -43.47590000     -33.07350000     -75.64890000
C      -41.95090000     -35.61530000     -70.34100000
H      -41.12900000     -36.35370000     -70.49840000
H      -41.67420000     -35.05470000     -69.41630000
S      -45.29770000     -34.35910000     -74.77310000
S      -43.53310000     -36.58130000     -70.06630000
C      -45.94330000     -33.05280000     -73.62920000
H      -45.14680000     -32.84890000     -72.91690000
H      -46.07480000     -32.12800000     -74.22220000
C      -44.53450000     -35.13550000     -69.33900000
H      -43.83640000     -34.23730000     -69.27450000
H      -44.76210000     -35.31910000     -68.26100000
C      -45.78050000     -34.76650000     -70.14510000
H      -45.58850000     -34.50130000     -71.22720000
H      -46.59950000     -35.56660000     -70.20690000
C      -47.24310000     -33.53790000     -72.95770000
H      -47.26110000     -34.60580000     -72.51010000
H      -48.01140000     -33.58680000     -73.76070000
C      -47.59780000     -32.51710000     -71.87830000
C      -48.35680000     -31.40300000     -72.09830000
C      -47.22510000     -32.66880000     -70.48590000
H      -48.66610000     -31.16700000     -73.11760000
C      -47.64590000     -31.52200000     -69.74330000
C      -46.51490000     -33.52840000     -69.61230000
C      -46.54030000     -33.17460000     -68.28280000
S      -48.70470000     -30.48410000     -70.67950000
S      -47.36450000     -31.60420000     -68.05580000
H      -45.75470000     -33.59560000     -67.68140000
