40
Properties=species:S:1:pos:R:3 #=T CELL(abcABC):=T 1.889726e+02=T 90.00000=T Traj:=T positionsangstrom=T Step:=T 0=T Bead:=T pbc="F F F"
C      -41.48890000     -33.33920000     -70.99830000
C      -42.09160000     -34.61650000     -71.42990000
C      -42.66220000     -34.76180000     -72.72090000
C      -42.71940000     -33.61140000     -73.56360000
C      -42.15760000     -32.36070000     -73.16430000
C      -41.60210000     -32.29320000     -71.88350000
H      -40.99570000     -33.26810000     -70.01810000
H      -43.12280000     -35.73770000     -72.97060000
H      -42.22210000     -31.40780000     -73.75350000
H      -41.25980000     -31.33010000     -71.54320000
C      -43.46670000     -33.55290000     -74.92150000
H      -42.96020000     -34.01860000     -75.76440000
H      -43.36470000     -32.50680000     -75.24300000
C      -42.03940000     -35.84090000     -70.54590000
H      -41.51050000     -36.67700000     -71.01220000
H      -41.42280000     -35.67880000     -69.67830000
S      -45.19190000     -33.98880000     -74.84890000
S      -43.73270000     -36.52470000     -70.22890000
C      -45.74350000     -33.18630000     -73.23920000
H      -45.02940000     -33.56360000     -72.48010000
H      -45.63920000     -32.05920000     -73.30230000
C      -44.60020000     -35.12680000     -69.39180000
H      -43.96420000     -34.27500000     -69.47410000
H      -44.54210000     -35.32060000     -68.26200000
C      -45.95660000     -34.87500000     -69.97070000
H      -45.92220000     -34.88030000     -71.05470000
H      -46.51540000     -35.83030000     -69.82000000
C      -47.19210000     -33.51120000     -72.98850000
H      -47.39880000     -34.56260000     -72.73000000
H      -47.82520000     -33.27120000     -73.87390000
C      -47.70190000     -32.61610000     -71.81980000
C      -48.55560000     -31.52410000     -72.11060000
C      -47.27450000     -32.67680000     -70.43330000
H      -49.00360000     -31.41150000     -73.06260000
C      -47.76600000     -31.61570000     -69.69150000
C      -46.62520000     -33.57950000     -69.53080000
C      -46.69480000     -33.23110000     -68.24130000
S      -48.87580000     -30.58720000     -70.66130000
S      -47.38500000     -31.60540000     -67.97910000
H      -46.46520000     -33.90270000     -67.45280000
