40
Properties=species:S:1:pos:R:3 #=T CELL(abcABC):=T 1.889726e+02=T 90.00000=T Traj:=T positionsangstrom=T Step:=T 0=T Bead:=T pbc="F F F"
C      -43.94560000     -36.95460000     -71.70570000
C      -45.31260000     -36.81120000     -71.46870000
C      -46.07910000     -36.32320000     -72.55910000
C      -45.48600000     -35.88870000     -73.74800000
C      -44.13550000     -36.07890000     -73.93180000
C      -43.42790000     -36.77960000     -72.95440000
H      -43.33940000     -37.22720000     -70.79810000
H      -47.13080000     -36.52760000     -72.63360000
H      -43.56290000     -35.79310000     -74.74620000
H      -42.45200000     -37.14100000     -73.21500000
C      -46.31480000     -35.20330000     -74.82990000
H      -46.92860000     -35.96970000     -75.31020000
H      -45.67280000     -34.58760000     -75.49310000
C      -45.81010000     -37.03430000     -70.06700000
H      -46.43930000     -37.94160000     -70.14090000
H      -45.04780000     -37.33160000     -69.40930000
S      -47.48550000     -34.02760000     -74.01660000
S      -46.93670000     -35.75980000     -69.31800000
C      -46.28490000     -32.80870000     -73.30530000
H      -45.28120000     -33.25520000     -73.39290000
H      -46.35940000     -31.81790000     -73.84600000
C      -45.70210000     -34.37720000     -68.70210000
H      -45.31450000     -34.60750000     -67.74390000
H      -46.35010000     -33.48850000     -68.64700000
C      -44.51660000     -33.94740000     -69.65600000
H      -43.57740000     -34.44970000     -69.39620000
H      -44.80230000     -34.25870000     -70.65660000
C      -46.72750000     -32.47620000     -71.81620000
H      -46.44580000     -33.34860000     -71.26170000
H      -47.83280000     -32.42340000     -71.88590000
C      -45.91750000     -31.28440000     -71.37210000
C      -46.16730000     -29.98950000     -71.80420000
C      -44.80860000     -31.39260000     -70.42790000
H      -47.05920000     -29.80140000     -72.47560000
C      -44.35530000     -30.09960000     -70.11200000
C      -44.13200000     -32.43570000     -69.71380000
C      -43.04300000     -31.91870000     -69.05540000
S      -45.16080000     -28.84880000     -71.00630000
S      -42.89060000     -30.11600000     -69.22100000
H      -42.39400000     -32.50630000     -68.45350000
