40
Properties=species:S:1:pos:R:3 #=T CELL(abcABC):=T 1.889726e+02=T 90.00000=T Traj:=T positionsangstrom=T Step:=T 0=T Bead:=T pbc="F F F"
C      -43.66720000     -37.27630000     -71.07000000
C      -43.14090000     -35.99380000     -71.08030000
C      -43.42260000     -35.13170000     -72.13620000
C      -44.06420000     -35.59800000     -73.34530000
C      -44.57760000     -36.89480000     -73.31110000
C      -44.42890000     -37.65560000     -72.12690000
H      -43.56040000     -37.86620000     -70.14350000
H      -43.19360000     -34.02450000     -72.03260000
H      -45.13630000     -37.33450000     -74.12710000
H      -44.88100000     -38.64060000     -72.10950000
C      -44.08570000     -34.77350000     -74.59010000
H      -44.52960000     -35.41040000     -75.42080000
H      -43.05390000     -34.47990000     -74.82420000
C      -42.28660000     -35.31560000     -69.96320000
H      -41.93550000     -36.06890000     -69.27470000
H      -41.29710000     -34.94990000     -70.47970000
S      -45.09520000     -33.21690000     -74.20850000
S      -42.84440000     -33.90650000     -68.92520000
C      -46.83720000     -33.93660000     -74.01490000
H      -47.44110000     -33.19610000     -74.58630000
H      -46.73970000     -34.92270000     -74.54810000
C      -44.63490000     -34.37160000     -68.39950000
H      -44.80680000     -33.82580000     -67.47620000
H      -44.52240000     -35.42520000     -68.27270000
C      -45.72090000     -34.12600000     -69.40140000
H      -45.35170000     -34.58480000     -70.38370000
H      -46.62920000     -34.72630000     -69.03570000
C      -47.25240000     -33.91860000     -72.52920000
H      -46.71110000     -34.63740000     -71.90920000
H      -48.28750000     -34.28980000     -72.55190000
C      -47.18150000     -32.48110000     -72.03630000
C      -47.82490000     -31.47640000     -72.66370000
C      -46.58520000     -32.02390000     -70.76570000
H      -48.28630000     -31.41750000     -73.63200000
C      -46.73200000     -30.65520000     -70.57440000
C      -46.03580000     -32.66020000     -69.56330000
C      -45.75850000     -31.69960000     -68.61480000
S      -47.73610000     -29.90060000     -71.82160000
S      -46.15820000     -29.99970000     -69.03110000
H      -45.30090000     -31.80100000     -67.62620000
