40
Properties=species:S:1:pos:R:3 #=T CELL(abcABC):=T 1.889726e+02=T 90.00000=T Traj:=T positionsangstrom=T Step:=T 0=T Bead:=T pbc="F F F"
C      -42.15210000     -35.11200000     -70.89230000
C      -42.14840000     -34.14640000     -71.88220000
C      -42.09490000     -32.76910000     -71.57950000
C      -42.09150000     -32.38950000     -70.21720000
C      -41.97090000     -33.36350000     -69.24480000
C      -42.03160000     -34.69380000     -69.56720000
H      -42.10980000     -36.11880000     -71.23430000
H      -42.23050000     -32.09300000     -72.41670000
H      -41.92710000     -32.95990000     -68.24550000
H      -41.96180000     -35.46810000     -68.78910000
C      -42.17130000     -30.93350000     -69.84150000
H      -41.56620000     -30.27030000     -70.49990000
H      -41.91800000     -30.73220000     -68.74880000
C      -42.19900000     -34.65670000     -73.31310000
H      -41.20560000     -34.41750000     -73.77590000
H      -42.33030000     -35.68330000     -73.30700000
S      -43.84080000     -30.09930000     -70.13270000
S      -43.59230000     -33.86350000     -74.33530000
C      -44.82280000     -31.51490000     -69.46970000
H      -44.21260000     -32.15930000     -68.83910000
H      -45.62910000     -31.16420000     -68.79310000
C      -45.14140000     -34.60390000     -73.62550000
H      -44.98850000     -34.97000000     -72.61230000
H      -45.48830000     -35.44090000     -74.25130000
C      -46.24340000     -33.46470000     -73.63280000
H      -45.87090000     -32.54350000     -73.18740000
H      -46.53380000     -33.22270000     -74.70870000
C      -45.50370000     -32.23070000     -70.71770000
H      -44.81120000     -32.83060000     -71.37710000
H      -45.81730000     -31.33250000     -71.28590000
C      -46.72540000     -33.03360000     -70.41770000
C      -47.35010000     -32.95840000     -69.18490000
C      -47.58870000     -33.67410000     -71.42680000
H      -46.97470000     -32.79300000     -68.18100000
C      -48.70760000     -34.21550000     -70.89560000
C      -47.43690000     -33.88770000     -72.82960000
C      -48.46440000     -34.72430000     -73.26680000
S      -48.80190000     -33.96750000     -69.17670000
S      -49.66910000     -35.08180000     -72.03040000
H      -48.53220000     -35.13810000     -74.28590000
