40
Properties=species:S:1:pos:R:3 #=T CELL(abcABC):=T 1.889726e+02=T 90.00000=T Traj:=T positionsangstrom=T Step:=T 0=T Bead:=T pbc="F F F"
C      -42.90960000     -35.20780000     -70.94000000
C      -42.39070000     -34.38450000     -71.95450000
C      -42.05490000     -33.08790000     -71.59550000
C      -42.16320000     -32.60030000     -70.32070000
C      -42.37050000     -33.51130000     -69.26180000
C      -42.79880000     -34.80760000     -69.57660000
H      -43.17320000     -36.23820000     -71.05610000
H      -41.94880000     -32.38240000     -72.41380000
H      -42.40770000     -33.15230000     -68.25170000
H      -42.96020000     -35.53920000     -68.81730000
C      -42.01440000     -31.13680000     -69.90780000
H      -41.15790000     -30.75520000     -70.49710000
H      -41.67340000     -31.18210000     -68.82630000
C      -42.42340000     -34.95720000     -73.28340000
H      -41.49810000     -34.92380000     -73.71980000
H      -42.79280000     -36.00560000     -73.29390000
S      -43.45770000     -30.02650000     -70.20290000
S      -43.59660000     -33.93980000     -74.43740000
C      -44.81300000     -31.19240000     -69.71200000
H      -44.57380000     -31.77230000     -68.80810000
H      -45.62580000     -30.56760000     -69.41380000
C      -45.14120000     -34.48410000     -73.47020000
H      -44.83000000     -34.44710000     -72.42770000
H      -45.37670000     -35.45610000     -73.79970000
C      -46.31090000     -33.48240000     -73.77040000
H      -45.99580000     -32.41850000     -73.62530000
H      -46.52030000     -33.54310000     -74.88050000
C      -45.21630000     -32.18270000     -70.81620000
H      -44.40120000     -32.81130000     -71.00060000
H      -45.26780000     -31.57830000     -71.77110000
C      -46.49670000     -32.93920000     -70.43570000
C      -47.17770000     -32.73340000     -69.25630000
C      -47.30860000     -33.81000000     -71.32580000
H      -47.03510000     -32.01520000     -68.43640000
C      -48.48040000     -34.31000000     -70.75050000
C      -47.42950000     -33.90390000     -72.79410000
C      -48.67690000     -34.44230000     -73.24500000
S      -48.60970000     -33.76920000     -69.08440000
S      -49.67400000     -34.97610000     -71.77190000
H      -48.99720000     -34.55960000     -74.27410000
