40
Properties=species:S:1:pos:R:3 #=T CELL(abcABC):=T 1.889726e+02=T 90.00000=T Traj:=T positionsangstrom=T Step:=T 0=T Bead:=T pbc="F F F"
C      -48.33420000     -34.59330000     -72.94360000
C      -47.34320000     -34.47350000     -73.86310000
C      -46.15760000     -35.17700000     -73.84100000
C      -45.99780000     -36.14770000     -72.81410000
C      -47.04740000     -36.21850000     -71.84400000
C      -48.17870000     -35.47010000     -71.91330000
H      -49.35060000     -34.10440000     -73.13380000
H      -45.43730000     -35.14240000     -74.62830000
H      -46.85370000     -36.94000000     -71.05250000
H      -48.89880000     -35.57380000     -71.17470000
C      -44.85850000     -37.04200000     -72.95580000
H      -44.32670000     -36.74940000     -73.85430000
H      -45.15060000     -38.08260000     -73.09520000
C      -47.68660000     -33.42130000     -74.97150000
H      -47.21440000     -33.78590000     -75.91720000
H      -48.74000000     -33.45190000     -75.15020000
S      -43.73370000     -37.12910000     -71.50230000
S      -47.08100000     -31.72510000     -74.61590000
C      -43.44730000     -35.27560000     -71.16140000
H      -42.46530000     -35.10900000     -70.66450000
H      -43.36980000     -34.72220000     -72.08480000
C      -46.68800000     -31.64440000     -72.76910000
H      -47.37150000     -32.37170000     -72.29690000
H      -46.89900000     -30.67390000     -72.31230000
C      -45.23190000     -31.90790000     -72.40440000
H      -44.96930000     -32.96040000     -72.50230000
H      -44.58700000     -31.24610000     -72.89710000
C      -44.56010000     -34.64980000     -70.20240000
H      -44.89840000     -35.44770000     -69.58880000
H      -45.40250000     -34.39630000     -70.80210000
C      -44.10100000     -33.51770000     -69.36190000
C      -43.47920000     -33.53960000     -68.11250000
C      -44.45050000     -32.17910000     -69.70890000
H      -43.27710000     -34.60470000     -67.77020000
C      -44.13750000     -31.24800000     -68.67350000
C      -44.95020000     -31.40870000     -70.87420000
C      -45.04840000     -30.08780000     -70.66890000
S      -43.38510000     -31.99390000     -67.28570000
S      -44.42990000     -29.57050000     -69.12790000
H      -45.48350000     -29.39450000     -71.26210000
