40
Properties=species:S:1:pos:R:3 #=T CELL(abcABC):=T 1.889726e+02=T 90.00000=T Traj:=T positionsangstrom=T Step:=T 0=T Bead:=T pbc="F F F"
C      -41.26380000     -34.77570000     -71.20650000
C      -41.94870000     -33.93870000     -72.05620000
C      -42.33420000     -32.68260000     -71.66100000
C      -42.06140000     -32.20400000     -70.38860000
C      -41.37990000     -33.04750000     -69.47810000
C      -40.94750000     -34.29220000     -69.95080000
H      -41.09000000     -35.77690000     -71.41880000
H      -42.73860000     -31.98990000     -72.35620000
H      -41.02640000     -32.67040000     -68.50330000
H      -40.28360000     -34.93420000     -69.31960000
C      -42.35860000     -30.77210000     -69.89450000
H      -41.72200000     -30.06090000     -70.49630000
H      -41.98590000     -30.61830000     -68.85390000
C      -42.22460000     -34.42910000     -73.48120000
H      -41.27350000     -34.16720000     -74.06810000
H      -42.21870000     -35.59290000     -73.47710000
S      -44.18100000     -30.15870000     -69.97600000
S      -43.60780000     -33.60640000     -74.39730000
C      -45.25530000     -31.45280000     -69.34350000
H      -44.80380000     -31.98870000     -68.50070000
H      -46.24390000     -31.05680000     -69.00950000
C      -45.01310000     -34.39390000     -73.49370000
H      -44.56790000     -34.51970000     -72.46480000
H      -45.18500000     -35.38070000     -74.00820000
C      -46.28700000     -33.56720000     -73.57350000
H      -46.16060000     -32.52000000     -73.40720000
H      -46.60210000     -33.56690000     -74.67560000
C      -45.60920000     -32.40860000     -70.42620000
H      -44.70480000     -33.00170000     -70.52560000
H      -45.79550000     -31.92640000     -71.42450000
C      -46.86260000     -33.25250000     -70.20570000
C      -47.61180000     -33.21960000     -69.07060000
C      -47.57070000     -33.88820000     -71.29330000
H      -47.22880000     -32.83130000     -68.09520000
C      -48.79340000     -34.37500000     -70.81260000
C      -47.44760000     -34.06090000     -72.69810000
C      -48.42960000     -34.85880000     -73.22160000
S      -49.10340000     -34.15660000     -69.16810000
S      -49.60620000     -35.42330000     -72.03080000
H      -48.78310000     -35.11820000     -74.22410000
