40
Properties=species:S:1:pos:R:3 #=T CELL(abcABC):=T 1.889726e+02=T 90.00000=T Traj:=T positionsangstrom=T Step:=T 0=T Bead:=T pbc="F F F"
C      -48.32580000     -34.68760000     -72.75930000
C      -47.43350000     -34.50830000     -73.76820000
C      -46.27930000     -35.40720000     -73.95140000
C      -46.05120000     -36.27750000     -72.91330000
C      -46.95520000     -36.50890000     -71.85200000
C      -48.06950000     -35.67410000     -71.76470000
H      -49.18200000     -34.02660000     -72.70530000
H      -45.62660000     -35.33630000     -74.76120000
H      -46.71130000     -37.22310000     -71.05090000
H      -48.72090000     -35.79590000     -70.91810000
C      -44.68370000     -37.01440000     -73.03210000
H      -44.23180000     -36.86620000     -73.99990000
H      -44.90250000     -38.07900000     -73.03610000
C      -47.75080000     -33.42840000     -74.78520000
H      -47.62520000     -33.79440000     -75.80330000
H      -48.85080000     -33.28490000     -74.81720000
S      -43.49220000     -36.79280000     -71.68170000
S      -46.74440000     -31.92480000     -74.66380000
C      -43.64330000     -34.98990000     -71.29150000
H      -42.65140000     -34.67840000     -71.04200000
H      -43.98420000     -34.44840000     -72.22570000
C      -46.64650000     -31.41680000     -72.90850000
H      -47.56820000     -31.67690000     -72.37910000
H      -46.69930000     -30.34750000     -72.93710000
C      -45.30080000     -31.85630000     -72.26560000
H      -45.33550000     -32.97550000     -72.25020000
H      -44.39960000     -31.57200000     -72.83840000
C      -44.58770000     -34.82010000     -70.10180000
H      -44.39610000     -35.64970000     -69.44650000
H      -45.60660000     -34.93720000     -70.44300000
C      -44.28190000     -33.48330000     -69.35750000
C      -43.83880000     -33.58420000     -68.07290000
C      -44.55380000     -32.09660000     -69.71940000
H      -43.55920000     -34.60790000     -67.59900000
C      -44.22430000     -31.22710000     -68.68440000
C      -45.01540000     -31.37070000     -70.87220000
C      -45.04550000     -29.99770000     -70.59030000
S      -43.48760000     -32.01110000     -67.34600000
S      -44.51340000     -29.56660000     -69.00840000
H      -45.33540000     -29.24820000     -71.27160000
