40
Properties=species:S:1:pos:R:3 #=T CELL(abcABC):=T 1.889726e+02=T 90.00000=T Traj:=T positionsangstrom=T Step:=T 0=T Bead:=T pbc="F F F"
C      -44.29450000     -35.74820000     -67.94960000
C      -45.24820000     -34.67300000     -68.14160000
C      -46.48020000     -34.92650000     -68.74150000
C      -46.84330000     -36.14580000     -69.27620000
C      -45.87980000     -37.19070000     -69.18120000
C      -44.65090000     -37.01830000     -68.50580000
H      -43.35150000     -35.56150000     -67.50040000
H      -47.04650000     -34.08570000     -68.92300000
H      -46.15280000     -38.14990000     -69.60780000
H      -43.88510000     -37.85430000     -68.52500000
C      -48.06740000     -36.30340000     -70.09960000
H      -48.95610000     -36.16520000     -69.35330000
H      -48.07220000     -37.32710000     -70.53740000
C      -44.83660000     -33.27600000     -67.83150000
H      -45.23040000     -32.74420000     -66.93070000
H      -43.77850000     -33.46350000     -67.72440000
S      -48.26610000     -35.08310000     -71.48440000
S      -44.97670000     -32.32030000     -69.39650000
C      -46.77580000     -35.42280000     -72.49000000
H      -46.48990000     -36.44350000     -72.05140000
H      -47.02280000     -35.38890000     -73.54060000
C      -43.16500000     -32.10310000     -69.74090000
H      -42.49220000     -32.42910000     -68.94650000
H      -43.02490000     -31.08210000     -69.94790000
C      -42.73760000     -32.84890000     -71.11420000
H      -41.62910000     -32.80890000     -71.12550000
H      -42.97580000     -33.85020000     -71.17910000
C      -45.62280000     -34.42520000     -72.11130000
H      -44.61360000     -34.95120000     -72.22490000
H      -45.69670000     -34.22690000     -71.09720000
C      -45.59440000     -33.15240000     -72.89300000
C      -46.61890000     -32.68750000     -73.70410000
C      -44.45780000     -32.16520000     -72.86860000
H      -47.43530000     -33.37130000     -74.05780000
C      -44.76180000     -31.13130000     -73.71250000
C      -43.22070000     -31.96500000     -72.23330000
C      -42.49800000     -30.90940000     -72.66760000
S      -46.13080000     -31.31250000     -74.75760000
S      -43.46160000     -29.99240000     -73.90260000
H      -41.54610000     -30.52770000     -72.45270000
