40
Properties=species:S:1:pos:R:3 #=T CELL(abcABC):=T 1.889726e+02=T 90.00000=T Traj:=T positionsangstrom=T Step:=T 0=T Bead:=T pbc="F F F"
C      -41.68900000     -32.75470000     -70.54980000
C      -42.10400000     -34.04050000     -70.86530000
C      -42.61910000     -34.27550000     -72.13040000
C      -42.88630000     -33.29740000     -73.09910000
C      -42.50620000     -32.00630000     -72.76100000
C      -41.87450000     -31.73060000     -71.52560000
H      -41.29880000     -32.64530000     -69.55090000
H      -42.79280000     -35.26370000     -72.34850000
H      -42.68940000     -31.24430000     -73.57090000
H      -41.73380000     -30.70220000     -71.31830000
C      -43.33510000     -33.54550000     -74.58060000
H      -42.40370000     -33.70460000     -75.19530000
H      -43.76560000     -32.72690000     -75.09760000
C      -42.03180000     -35.05710000     -69.73830000
H      -41.33120000     -35.84830000     -70.01110000
H      -41.78080000     -34.50220000     -68.80080000
S      -44.46820000     -35.01370000     -74.72700000
S      -43.70490000     -35.94400000     -69.62120000
C      -46.11670000     -34.59940000     -74.01060000
H      -46.57810000     -33.80690000     -74.59960000
H      -46.66940000     -35.53280000     -73.81740000
C      -44.77000000     -34.68590000     -68.86540000
H      -44.44470000     -34.51780000     -67.84930000
H      -45.79660000     -35.05940000     -68.59260000
C      -44.88540000     -33.24930000     -69.42370000
H      -44.16910000     -32.64060000     -68.90410000
H      -44.53070000     -33.38730000     -70.43820000
C      -45.88510000     -33.98840000     -72.55170000
H      -45.01150000     -33.34500000     -72.57910000
H      -45.50350000     -34.76100000     -71.93030000
C      -47.08150000     -33.21500000     -71.97600000
C      -48.11910000     -32.81360000     -72.73130000
C      -47.14970000     -32.79300000     -70.59890000
H      -48.15070000     -32.93370000     -73.83290000
C      -48.30880000     -32.03780000     -70.40170000
C      -46.29950000     -32.68520000     -69.40490000
C      -46.93400000     -32.06160000     -68.33240000
S      -49.30620000     -31.88130000     -71.84360000
S      -48.49040000     -31.33960000     -68.86350000
H      -46.32690000     -31.73570000     -67.44440000
