40
Properties=species:S:1:pos:R:3 #=T CELL(abcABC):=T 1.889726e+02=T 90.00000=T Traj:=T positionsangstrom=T Step:=T 0=T Bead:=T pbc="F F F"
C      -43.71080000     -36.89520000     -71.64190000
C      -45.14530000     -36.85800000     -71.44780000
C      -45.88020000     -36.29630000     -72.53140000
C      -45.30700000     -35.86850000     -73.71680000
C      -43.91030000     -35.96350000     -73.90460000
C      -43.16920000     -36.51110000     -72.86050000
H      -43.09270000     -37.15760000     -70.81390000
H      -46.99490000     -36.27690000     -72.31560000
H      -43.44280000     -35.41680000     -74.67370000
H      -42.07700000     -36.59480000     -72.96950000
C      -46.20890000     -35.21100000     -74.79820000
H      -46.82790000     -35.92370000     -75.39230000
H      -45.55810000     -34.66510000     -75.44400000
C      -45.61850000     -37.13030000     -70.06380000
H      -46.13870000     -38.10990000     -70.08400000
H      -44.82480000     -37.34000000     -69.38910000
S      -47.45970000     -34.03140000     -74.16780000
S      -46.76650000     -35.86140000     -69.40010000
C      -46.38660000     -32.62970000     -73.39580000
H      -45.38710000     -32.88750000     -73.56320000
H      -46.71320000     -31.74850000     -73.94970000
C      -45.83970000     -34.22230000     -69.07280000
H      -45.63780000     -34.17780000     -67.96680000
H      -46.61160000     -33.44640000     -69.28620000
C      -44.55280000     -33.93600000     -69.93910000
H      -43.68570000     -34.45280000     -69.56410000
H      -44.66870000     -34.19190000     -70.97590000
C      -46.77630000     -32.49840000     -71.95350000
H      -46.40460000     -33.41400000     -71.44680000
H      -47.83940000     -32.48780000     -71.78390000
C      -46.14730000     -31.31400000     -71.24650000
C      -46.39740000     -29.97620000     -71.54320000
C      -45.04500000     -31.39410000     -70.36330000
H      -47.07440000     -29.49420000     -72.23730000
C      -44.46860000     -30.18360000     -70.06780000
C      -44.23820000     -32.46750000     -69.81870000
C      -43.14770000     -32.02100000     -69.17390000
S      -45.34600000     -28.79680000     -70.71670000
S      -43.00230000     -30.28600000     -69.12740000
H      -42.37920000     -32.67120000     -68.72570000
