40
Properties=species:S:1:pos:R:3 #=T CELL(abcABC):=T 1.889726e+02=T 90.00000=T Traj:=T positionsangstrom=T Step:=T 0=T Bead:=T pbc="F F F"
C      -43.27980000     -34.65730000     -71.98090000
C      -42.83590000     -33.45820000     -72.50100000
C      -42.74530000     -32.32700000     -71.70780000
C      -43.14440000     -32.44660000     -70.36290000
C      -43.73350000     -33.63900000     -69.86330000
C      -43.85270000     -34.73100000     -70.71730000
H      -43.41850000     -35.49590000     -72.59730000
H      -42.49220000     -31.42000000     -72.05280000
H      -44.11840000     -33.77870000     -68.92690000
H      -44.46730000     -35.65620000     -70.40200000
C      -42.80550000     -31.27520000     -69.42940000
H      -41.95270000     -30.79930000     -69.90910000
H      -42.62540000     -31.75330000     -68.45870000
C      -42.38250000     -33.41890000     -73.95700000
H      -41.48440000     -32.80000000     -74.21630000
H      -42.02270000     -34.43170000     -74.25730000
S      -44.18480000     -29.96670000     -69.30510000
S      -43.80380000     -32.78630000     -75.03840000
C      -45.76350000     -30.83640000     -68.83940000
H      -45.56890000     -31.43490000     -67.93600000
H      -46.43970000     -30.01400000     -68.61810000
C      -45.29990000     -33.74250000     -74.50140000
H      -44.99380000     -34.82090000     -74.15310000
H      -45.92950000     -33.96550000     -75.38270000
C      -46.11510000     -32.99820000     -73.42440000
H      -45.44410000     -32.44120000     -72.82810000
H      -46.83360000     -32.30420000     -73.90730000
C      -46.31250000     -31.52400000     -70.18180000
H      -45.53610000     -31.62600000     -70.89920000
H      -47.16020000     -30.96910000     -70.43230000
C      -46.85600000     -32.92700000     -69.97910000
C      -47.20010000     -33.49680000     -68.75480000
C      -46.98650000     -33.88680000     -71.09310000
H      -47.29740000     -33.03840000     -67.72770000
C      -47.47220000     -35.11220000     -70.59710000
C      -46.75270000     -34.00280000     -72.48900000
C      -47.16490000     -35.16440000     -73.03890000
S      -47.71990000     -35.17490000     -68.88820000
S      -47.67100000     -36.32620000     -71.84870000
H      -46.82010000     -35.58540000     -73.90060000
