40
Properties=species:S:1:pos:R:3 #=T CELL(abcABC):=T 1.889726e+02=T 90.00000=T Traj:=T positionsangstrom=T Step:=T 0=T Bead:=T pbc="F F F"
C      -43.11850000     -34.55010000     -71.96640000
C      -42.80330000     -33.27470000     -72.50340000
C      -42.49460000     -32.30000000     -71.56590000
C      -42.69460000     -32.52800000     -70.13910000
C      -43.06150000     -33.81830000     -69.66090000
C      -43.30490000     -34.76510000     -70.62560000
H      -43.44430000     -35.35800000     -72.60630000
H      -42.46820000     -31.20230000     -71.87280000
H      -43.09560000     -34.08470000     -68.57660000
H      -43.51670000     -35.76940000     -70.32540000
C      -42.64450000     -31.31180000     -69.23190000
H      -41.90820000     -30.55910000     -69.59880000
H      -42.49250000     -31.45430000     -68.18890000
C      -42.68730000     -33.05120000     -74.00070000
H      -41.78330000     -32.59020000     -74.29070000
H      -42.77860000     -33.94260000     -74.59990000
S      -44.11390000     -30.23340000     -69.41560000
S      -44.01280000     -31.98390000     -74.70200000
C      -45.46950000     -31.36410000     -69.04970000
H      -45.04090000     -32.24700000     -68.55330000
H      -46.14010000     -31.02560000     -68.25220000
C      -45.48080000     -33.14280000     -74.69130000
H      -45.21360000     -34.20810000     -74.70260000
H      -46.17450000     -32.94510000     -75.49850000
C      -46.24750000     -32.88330000     -73.35470000
H      -45.49570000     -32.48480000     -72.67920000
H      -47.00100000     -32.09630000     -73.46840000
C      -46.40130000     -31.75430000     -70.20340000
H      -45.82230000     -31.83850000     -71.12950000
H      -47.19680000     -30.97480000     -70.32580000
C      -47.02200000     -33.12840000     -70.06130000
C      -47.58660000     -33.61120000     -68.86670000
C      -47.10440000     -34.09430000     -71.10490000
H      -47.48710000     -33.15800000     -67.90980000
C      -47.56220000     -35.34280000     -70.66420000
C      -46.80950000     -34.11900000     -72.58270000
C      -47.03960000     -35.37120000     -73.10550000
S      -48.00470000     -35.24960000     -68.99240000
S      -47.70100000     -36.52520000     -71.98190000
H      -47.08910000     -35.59980000     -74.14490000
