40
Properties=species:S:1:pos:R:3 #=T CELL(abcABC):=T 1.889726e+02=T 90.00000=T Traj:=T positionsangstrom=T Step:=T 0=T Bead:=T pbc="F F F"
C      -41.85750000     -33.33020000     -72.13030000
C      -42.45190000     -32.13970000     -72.42000000
C      -42.93800000     -31.36200000     -71.33380000
C      -42.64770000     -31.73740000     -70.03520000
C      -42.02260000     -32.93700000     -69.74670000
C      -41.68480000     -33.80120000     -70.80930000
H      -41.46870000     -33.96120000     -72.94390000
H      -43.32020000     -30.31330000     -71.53410000
H      -41.65670000     -33.18300000     -68.76600000
H      -41.36370000     -34.85430000     -70.59500000
C      -43.02840000     -30.80270000     -68.86050000
H      -42.39220000     -29.85280000     -69.00440000
H      -42.68250000     -31.23950000     -67.89530000
C      -42.43470000     -31.62360000     -73.82560000
H      -42.38880000     -30.52320000     -73.89870000
H      -41.59340000     -32.04660000     -74.45120000
S      -44.88520000     -30.46680000     -68.83890000
S      -44.07460000     -31.99250000     -74.74430000
C      -45.60580000     -32.21000000     -68.72090000
H      -44.72800000     -32.83400000     -68.82410000
H      -46.06840000     -32.51350000     -67.76640000
C      -44.72870000     -33.69210000     -74.16870000
H      -43.92850000     -34.40110000     -73.84010000
H      -45.27130000     -34.03420000     -75.04660000
C      -45.75080000     -33.34580000     -73.08570000
H      -45.15550000     -32.88130000     -72.31120000
H      -46.45400000     -32.58140000     -73.48060000
C      -46.54840000     -32.38890000     -69.88600000
H      -45.98660000     -32.20500000     -70.73570000
H      -47.32090000     -31.62210000     -69.77390000
C      -47.17620000     -33.79370000     -70.02900000
C      -47.89310000     -34.36490000     -68.98720000
C      -47.14050000     -34.54020000     -71.25930000
H      -47.88840000     -34.13320000     -67.88730000
C      -47.92770000     -35.67190000     -71.07660000
C      -46.52360000     -34.53140000     -72.54580000
C      -46.94590000     -35.61210000     -73.36050000
S      -48.65520000     -35.88390000     -69.48350000
S      -48.04540000     -36.67610000     -72.54940000
H      -46.68430000     -35.77620000     -74.37150000
