40
Properties=species:S:1:pos:R:3 #=T CELL(abcABC):=T 1.889726e+02=T 90.00000=T Traj:=T positionsangstrom=T Step:=T 0=T Bead:=T pbc="F F F"
C      -42.37960000     -33.81880000     -72.09580000
C      -42.48880000     -32.45670000     -72.44600000
C      -42.66700000     -31.50940000     -71.44580000
C      -42.74070000     -31.87850000     -70.08130000
C      -42.57650000     -33.25180000     -69.77260000
C      -42.32860000     -34.15970000     -70.76320000
H      -42.38890000     -34.54630000     -72.85690000
H      -42.63350000     -30.47990000     -71.62190000
H      -42.62690000     -33.53430000     -68.73460000
H      -42.35500000     -35.18460000     -70.60060000
C      -42.93650000     -30.82060000     -69.06070000
H      -42.31550000     -29.94190000     -69.14870000
H      -42.67440000     -31.16580000     -68.02790000
C      -42.32740000     -32.02680000     -73.88280000
H      -41.85930000     -30.99060000     -73.83710000
H      -41.68260000     -32.77380000     -74.41480000
S      -44.66580000     -30.35500000     -69.01430000
S      -43.94590000     -31.89800000     -74.75360000
C      -45.57950000     -31.97880000     -68.82610000
H      -44.86360000     -32.78540000     -68.78940000
H      -46.12990000     -31.94070000     -67.90200000
C      -44.96970000     -33.47980000     -74.37060000
H      -44.17800000     -34.20570000     -74.29150000
H      -45.56720000     -33.85530000     -75.23410000
C      -45.86090000     -33.27510000     -73.17060000
H      -45.19760000     -32.81000000     -72.39410000
H      -46.57240000     -32.41950000     -73.33990000
C      -46.61270000     -32.14920000     -69.98370000
H      -46.11160000     -31.73260000     -70.91840000
H      -47.47160000     -31.50610000     -69.88190000
C      -47.06330000     -33.63390000     -70.02410000
C      -47.56890000     -34.24060000     -68.91710000
C      -47.11960000     -34.47060000     -71.18530000
H      -47.90480000     -33.90770000     -67.98400000
C      -47.81090000     -35.60400000     -70.92340000
C      -46.64690000     -34.44370000     -72.55090000
C      -47.05840000     -35.51660000     -73.27860000
S      -48.29430000     -35.86620000     -69.24930000
S      -48.12370000     -36.57510000     -72.37600000
H      -46.84960000     -35.63100000     -74.30960000
