40
Properties=species:S:1:pos:R:3 #=T CELL(abcABC):=T 1.889726e+02=T 90.00000=T Traj:=T positionsangstrom=T Step:=T 0=T Bead:=T pbc="F F F"
C      -41.38320000     -32.68690000     -71.86540000
C      -42.46770000     -31.83000000     -72.36550000
C      -43.22550000     -31.16390000     -71.40610000
C      -42.77440000     -31.09410000     -70.04820000
C      -41.66100000     -31.78980000     -69.66670000
C      -40.95290000     -32.60040000     -70.56490000
H      -40.88200000     -33.38410000     -72.59860000
H      -44.12010000     -30.59670000     -71.66780000
H      -41.52320000     -31.90640000     -68.63520000
H      -40.23350000     -33.24960000     -70.29360000
C      -43.59460000     -30.28100000     -69.12580000
H      -44.17600000     -29.48140000     -69.60340000
H      -42.88440000     -29.80130000     -68.35990000
C      -42.80960000     -31.81810000     -73.86490000
H      -42.15700000     -31.19280000     -74.46480000
H      -42.65820000     -32.83570000     -74.29070000
S      -44.88920000     -31.21110000     -68.20750000
S      -44.56120000     -31.48560000     -74.18730000
C      -45.31150000     -32.79250000     -69.12230000
H      -44.48560000     -33.23510000     -69.70040000
H      -45.60140000     -33.52050000     -68.34400000
C      -45.34930000     -33.13210000     -74.26270000
H      -44.95680000     -33.55500000     -75.17940000
H      -46.43070000     -32.99630000     -74.47300000
C      -45.09240000     -33.89570000     -72.99050000
H      -44.14430000     -34.49190000     -73.10390000
H      -44.81280000     -33.11200000     -72.14020000
C      -46.49520000     -32.68740000     -70.05180000
H      -46.11590000     -32.31970000     -70.96970000
H      -47.29770000     -31.97400000     -69.69750000
C      -47.17690000     -34.05780000     -70.24500000
C      -48.14160000     -34.45990000     -69.39070000
C      -46.93200000     -34.98590000     -71.35090000
H      -48.67610000     -33.89680000     -68.67470000
C      -47.76880000     -36.10090000     -71.22530000
C      -46.16010000     -34.93700000     -72.56960000
C      -46.60840000     -35.90310000     -73.43300000
S      -48.96130000     -35.95620000     -69.90830000
S      -47.74080000     -37.03770000     -72.72620000
H      -46.23510000     -35.93230000     -74.48470000
