40
Properties=species:S:1:pos:R:3 #=T CELL(abcABC):=T 1.889726e+02=T 90.00000=T Traj:=T positionsangstrom=T Step:=T 0=T Bead:=T pbc="F F F"
C      -41.55730000     -33.23550000     -72.11190000
C      -42.26380000     -32.05010000     -72.50240000
C      -42.75200000     -31.17890000     -71.50880000
C      -42.71420000     -31.50040000     -70.17810000
C      -41.97680000     -32.64630000     -69.83310000
C      -41.46960000     -33.51190000     -70.77580000
H      -41.20290000     -33.83240000     -72.86270000
H      -43.21200000     -30.30270000     -71.87220000
H      -41.76620000     -32.89380000     -68.81050000
H      -41.04860000     -34.46450000     -70.52750000
C      -43.20370000     -30.59910000     -69.01810000
H      -43.16630000     -29.55490000     -69.25210000
H      -42.52400000     -30.75820000     -68.17550000
C      -42.33850000     -31.60000000     -73.89840000
H      -42.09330000     -30.51970000     -73.97610000
H      -41.53120000     -32.09820000     -74.52730000
S      -45.02020000     -30.91080000     -68.40750000
S      -44.01130000     -31.91770000     -74.74880000
C      -45.55210000     -32.46470000     -69.34340000
H      -44.91930000     -32.60560000     -70.18960000
H      -45.45800000     -33.37070000     -68.71410000
C      -44.65390000     -33.49550000     -73.94710000
H      -43.74400000     -34.07310000     -73.81330000
H      -45.31440000     -33.91400000     -74.71360000
C      -45.37480000     -33.37840000     -72.62930000
H      -44.58020000     -33.18680000     -71.82430000
H      -45.89480000     -32.41150000     -72.61570000
C      -47.09500000     -32.33830000     -69.72550000
H      -47.10290000     -31.70650000     -70.63010000
H      -47.70500000     -31.98060000     -68.93730000
C      -47.66660000     -33.66920000     -70.08570000
C      -48.59690000     -34.30510000     -69.29150000
C      -47.26470000     -34.56760000     -71.19230000
H      -48.85070000     -34.00180000     -68.32000000
C      -48.04380000     -35.77770000     -71.23430000
C      -46.27100000     -34.54460000     -72.23930000
C      -46.28360000     -35.73870000     -72.98760000
S      -49.14480000     -35.89200000     -69.87800000
S      -47.58890000     -36.81820000     -72.48520000
H      -45.62060000     -36.04480000     -73.79700000
