40
Properties=species:S:1:pos:R:3 #=T CELL(abcABC):=T 1.889726e+02=T 90.00000=T Traj:=T positionsangstrom=T Step:=T 0=T Bead:=T pbc="F F F"
C      -41.50130000     -32.89380000     -71.87080000
C      -42.55890000     -32.07300000     -72.27960000
C      -43.13390000     -31.20140000     -71.31530000
C      -42.77280000     -31.33090000     -69.96870000
C      -41.85680000     -32.27500000     -69.52120000
C      -41.19430000     -33.07620000     -70.47280000
H      -40.95160000     -33.37850000     -72.64970000
H      -43.84330000     -30.35810000     -71.52230000
H      -41.49390000     -32.32530000     -68.48880000
H      -40.38310000     -33.72760000     -70.04560000
C      -43.37790000     -30.35680000     -68.95360000
H      -43.62830000     -29.35880000     -69.43680000
H      -42.75450000     -30.10440000     -68.11510000
C      -42.79600000     -31.89960000     -73.78300000
H      -42.16000000     -31.05360000     -74.14060000
H      -42.33680000     -32.75900000     -74.25490000
S      -44.89800000     -31.11530000     -68.15380000
S      -44.52410000     -31.56750000     -74.25830000
C      -45.47310000     -32.60500000     -69.11670000
H      -44.60740000     -33.20500000     -69.26250000
H      -45.97360000     -33.28730000     -68.40060000
C      -45.54590000     -33.08100000     -74.11380000
H      -45.69370000     -33.58600000     -75.14050000
H      -46.46250000     -32.58250000     -73.83690000
C      -44.96600000     -34.12760000     -73.09180000
H      -44.04740000     -34.58910000     -73.56200000
H      -44.60830000     -33.67980000     -72.23260000
C      -46.31850000     -32.44690000     -70.43790000
H      -45.61320000     -32.31720000     -71.29750000
H      -46.90730000     -31.54730000     -70.46520000
C      -47.16360000     -33.71550000     -70.56640000
C      -48.10670000     -34.06010000     -69.59820000
C      -47.00600000     -34.78590000     -71.53060000
H      -48.20800000     -33.51740000     -68.70400000
C      -47.85010000     -35.86350000     -71.30690000
C      -46.14750000     -34.99500000     -72.69700000
C      -46.49920000     -36.18110000     -73.36190000
S      -48.84680000     -35.63380000     -69.90290000
S      -47.80150000     -37.07680000     -72.57820000
H      -46.00040000     -36.59640000     -74.25060000
