40
Properties=species:S:1:pos:R:3 #=T CELL(abcABC):=T 1.889726e+02=T 90.00000=T Traj:=T positionsangstrom=T Step:=T 0=T Bead:=T pbc="F F F"
C      -41.66240000     -33.44640000     -71.98170000
C      -42.31820000     -32.28260000     -72.42880000
C      -42.80220000     -31.34010000     -71.49990000
C      -42.73560000     -31.54560000     -70.11060000
C      -42.08570000     -32.71640000     -69.69040000
C      -41.54760000     -33.64980000     -70.60750000
H      -41.29330000     -34.20120000     -72.70630000
H      -43.37670000     -30.49440000     -71.90500000
H      -41.95690000     -32.86030000     -68.62280000
H      -41.01850000     -34.54790000     -70.10910000
C      -43.18330000     -30.61100000     -69.03760000
H      -43.17900000     -29.54810000     -69.31290000
H      -42.49510000     -30.66190000     -68.21360000
C      -42.66960000     -31.99960000     -73.96690000
H      -42.17810000     -31.13590000     -74.37370000
H      -42.39110000     -32.82230000     -74.59920000
S      -44.82540000     -30.92670000     -68.38300000
S      -44.39000000     -31.63500000     -74.37710000
C      -45.54930000     -32.43120000     -69.12560000
H      -44.72920000     -32.96670000     -69.59890000
H      -45.98850000     -32.97780000     -68.27190000
C      -45.46320000     -33.04640000     -74.04380000
H      -45.49060000     -33.73870000     -74.82680000
H      -46.42100000     -32.48360000     -73.88490000
C      -44.99410000     -33.82390000     -72.81680000
H      -43.94740000     -34.28120000     -72.98970000
H      -44.72660000     -33.09900000     -72.00670000
C      -46.62410000     -32.25670000     -70.17240000
H      -46.26600000     -31.84360000     -71.20470000
H      -47.30430000     -31.53340000     -69.70290000
C      -47.43490000     -33.54290000     -70.41720000
C      -48.57400000     -33.89340000     -69.73630000
C      -47.00410000     -34.62310000     -71.23050000
H      -49.06950000     -33.29220000     -68.95460000
C      -47.91980000     -35.70280000     -71.21580000
C      -46.01580000     -34.84970000     -72.29500000
C      -46.10010000     -36.03770000     -72.95450000
S      -49.25270000     -35.44080000     -70.13280000
S      -47.39380000     -37.04920000     -72.26930000
H      -45.52460000     -36.46280000     -73.77000000
