40
Properties=species:S:1:pos:R:3 #=T CELL(abcABC):=T 1.889726e+02=T 90.00000=T Traj:=T positionsangstrom=T Step:=T 0=T Bead:=T pbc="F F F"
C      -41.62110000     -32.31510000     -71.12000000
C      -41.87280000     -33.71210000     -71.00410000
C      -42.32480000     -34.39280000     -72.06430000
C      -42.59390000     -33.68150000     -73.28330000
C      -42.66870000     -32.30000000     -73.28280000
C      -42.04420000     -31.61930000     -72.23140000
H      -41.30730000     -31.71130000     -70.30610000
H      -42.26390000     -35.52390000     -72.01500000
H      -43.08060000     -31.76290000     -74.16440000
H      -42.07530000     -30.52400000     -72.12370000
C      -43.01540000     -34.43710000     -74.55950000
H      -42.78860000     -35.46270000     -74.59510000
H      -42.47520000     -34.03500000     -75.41110000
C      -41.64580000     -34.44200000     -69.65810000
H      -40.68960000     -34.98930000     -69.76420000
H      -41.36100000     -33.71750000     -68.86550000
S      -44.82990000     -34.36710000     -74.88750000
S      -42.91560000     -35.59110000     -69.02180000
C      -45.59050000     -33.53580000     -73.33410000
H      -44.84420000     -33.55480000     -72.50650000
H      -45.85400000     -32.47680000     -73.55400000
C      -44.41700000     -34.67300000     -68.67480000
H      -44.32680000     -33.71020000     -68.19210000
H      -44.92620000     -35.28580000     -67.94690000
C      -45.38850000     -34.45540000     -69.91730000
H      -44.84910000     -34.27730000     -70.81720000
H      -45.91910000     -35.42140000     -70.19530000
C      -46.96300000     -34.13480000     -73.12010000
H      -46.82350000     -35.12100000     -72.67730000
H      -47.57940000     -34.12770000     -74.03300000
C      -47.79610000     -33.33060000     -72.16120000
C      -49.03060000     -32.76340000     -72.59110000
C      -47.47280000     -33.02500000     -70.75450000
H      -49.41140000     -32.85300000     -73.60210000
C      -48.40670000     -32.15990000     -70.24150000
C      -46.42160000     -33.38120000     -69.76940000
C      -46.66330000     -32.75360000     -68.60020000
S      -49.63340000     -31.63290000     -71.36660000
S      -48.03380000     -31.63490000     -68.64300000
H      -46.13780000     -32.98950000     -67.65300000
