40
Properties=species:S:1:pos:R:3 #=T CELL(abcABC):=T 1.889726e+02=T 90.00000=T Traj:=T positionsangstrom=T Step:=T 0=T Bead:=T pbc="F F F"
C      -41.29080000     -32.44780000     -72.00700000
C      -42.29650000     -31.65470000     -72.51290000
C      -43.08610000     -30.91970000     -71.60150000
C      -42.93070000     -31.02060000     -70.19600000
C      -41.73850000     -31.67650000     -69.73680000
C      -40.98020000     -32.38570000     -70.62770000
H      -40.75180000     -33.07990000     -72.71810000
H      -43.95080000     -30.44300000     -72.06590000
H      -41.48360000     -31.48510000     -68.68390000
H      -39.99990000     -32.78710000     -70.48460000
C      -43.86160000     -30.24830000     -69.29600000
H      -44.51340000     -29.61080000     -69.84800000
H      -43.27020000     -29.57580000     -68.72240000
C      -42.72850000     -31.80450000     -73.96640000
H      -42.23910000     -31.06250000     -74.57570000
H      -42.36660000     -32.76200000     -74.40240000
S      -44.77660000     -31.32130000     -68.11070000
S      -44.56030000     -31.47260000     -74.25380000
C      -45.25070000     -32.80280000     -69.08010000
H      -44.46340000     -33.09070000     -69.81870000
H      -45.19790000     -33.59600000     -68.31210000
C      -45.50820000     -33.07960000     -73.94110000
H      -45.40370000     -33.64910000     -74.88100000
H      -46.53750000     -32.73670000     -73.78400000
C      -45.09930000     -33.88630000     -72.75370000
H      -44.14020000     -34.26950000     -72.96900000
H      -44.93470000     -33.11430000     -71.92010000
C      -46.67550000     -32.73700000     -69.80650000
H      -46.55530000     -32.06320000     -70.64950000
H      -47.45460000     -32.28620000     -69.14450000
C      -47.40480000     -34.06860000     -70.23600000
C      -48.29660000     -34.61740000     -69.36610000
C      -47.06980000     -34.94150000     -71.35600000
H      -48.63900000     -34.23290000     -68.37890000
C      -48.01320000     -36.00530000     -71.43480000
C      -46.12540000     -34.94240000     -72.43650000
C      -46.32280000     -36.05120000     -73.24950000
S      -48.86080000     -36.20560000     -69.94510000
S      -47.65900000     -37.07810000     -72.73800000
H      -45.67350000     -36.36010000     -74.07840000
