40
Properties=species:S:1:pos:R:3 #=T CELL(abcABC):=T 1.889726e+02=T 90.00000=T Traj:=T positionsangstrom=T Step:=T 0=T Bead:=T pbc="F F F"
C      -41.57630000     -32.54550000     -71.07010000
C      -41.84670000     -33.93670000     -71.00700000
C      -42.33190000     -34.63170000     -72.11510000
C      -42.71890000     -33.94510000     -73.29100000
C      -42.34810000     -32.58460000     -73.35610000
C      -41.74110000     -31.91530000     -72.31180000
H      -41.23870000     -32.05120000     -70.18940000
H      -42.61140000     -35.64700000     -71.93670000
H      -42.56460000     -31.90910000     -74.19950000
H      -41.56940000     -30.89040000     -72.48150000
C      -43.21100000     -34.72670000     -74.43620000
H      -42.95520000     -35.78440000     -74.28220000
H      -42.64580000     -34.33630000     -75.35640000
C      -41.72420000     -34.68410000     -69.64500000
H      -40.76460000     -35.22710000     -69.74820000
H      -41.62320000     -33.98040000     -68.85600000
S      -45.02870000     -34.63420000     -75.09610000
S      -43.08160000     -35.78080000     -69.09090000
C      -45.63450000     -33.37790000     -73.85510000
H      -44.77250000     -33.06190000     -73.33250000
H      -46.10970000     -32.49250000     -74.27790000
C      -44.45740000     -34.57530000     -68.69430000
H      -44.17160000     -33.73180000     -68.13610000
H      -45.05840000     -35.14210000     -68.00410000
C      -45.41200000     -34.17830000     -69.77950000
H      -44.88330000     -33.67000000     -70.56660000
H      -45.69400000     -35.10930000     -70.37080000
C      -46.58280000     -33.98570000     -72.81040000
H      -46.03470000     -34.62870000     -72.16410000
H      -47.24940000     -34.70400000     -73.30960000
C      -47.46840000     -33.04640000     -72.02190000
C      -48.53960000     -32.38890000     -72.62460000
C      -47.32940000     -32.73990000     -70.58390000
H      -48.84760000     -32.47010000     -73.66680000
C      -48.30100000     -31.77210000     -70.20650000
C      -46.57150000     -33.21070000     -69.47080000
C      -46.90740000     -32.58450000     -68.33090000
S      -49.45860000     -31.41630000     -71.50090000
S      -48.35520000     -31.50240000     -68.51880000
H      -46.36500000     -32.66280000     -67.41470000
