40
Properties=species:S:1:pos:R:3 #=T CELL(abcABC):=T 1.889726e+02=T 90.00000=T Traj:=T positionsangstrom=T Step:=T 0=T Bead:=T pbc="F F F"
C      -41.57440000     -32.72120000     -71.17610000
C      -42.01270000     -34.02360000     -71.02550000
C      -42.63430000     -34.66270000     -72.08800000
C      -42.66340000     -34.02390000     -73.35000000
C      -42.13390000     -32.72740000     -73.49330000
C      -41.69660000     -32.05280000     -72.39200000
H      -41.19100000     -32.16780000     -70.25380000
H      -43.04960000     -35.63830000     -71.92950000
H      -42.22160000     -32.23720000     -74.46950000
H      -41.40430000     -30.96940000     -72.43570000
C      -43.10270000     -34.66730000     -74.63720000
H      -42.83170000     -35.70280000     -74.59620000
H      -42.63810000     -34.24040000     -75.52940000
C      -41.80460000     -34.83620000     -69.77720000
H      -41.11440000     -35.67070000     -70.04820000
H      -41.48550000     -34.21730000     -68.88820000
S      -44.85870000     -34.49060000     -74.93530000
S      -43.25510000     -35.78740000     -69.07500000
C      -45.81980000     -33.29320000     -73.91530000
H      -45.18000000     -32.46880000     -73.58910000
H      -46.55270000     -32.83110000     -74.63110000
C      -44.42830000     -34.46580000     -68.46250000
H      -43.87200000     -33.55200000     -67.99790000
H      -45.05800000     -34.98350000     -67.64750000
C      -45.19970000     -34.00270000     -69.68880000
H      -44.51250000     -33.33970000     -70.19170000
H      -45.33750000     -34.76480000     -70.49300000
C      -46.52490000     -33.99910000     -72.78250000
H      -45.87380000     -34.36890000     -72.02200000
H      -47.11340000     -34.87180000     -73.20630000
C      -47.48980000     -33.02470000     -72.05810000
C      -48.49800000     -32.28070000     -72.63840000
C      -47.44060000     -32.78550000     -70.59160000
H      -48.79320000     -32.23120000     -73.67610000
C      -48.39680000     -31.85040000     -70.16570000
C      -46.51720000     -33.16650000     -69.48640000
C      -46.87130000     -32.56100000     -68.36320000
S      -49.45660000     -31.35790000     -71.51400000
S      -48.33050000     -31.59600000     -68.47960000
H      -46.39880000     -32.71830000     -67.39940000
