40
Properties=species:S:1:pos:R:3 #=T CELL(abcABC):=T 1.889726e+02=T 90.00000=T Traj:=T positionsangstrom=T Step:=T 0=T Bead:=T pbc="F F F"
C      -41.87020000     -32.28950000     -70.90060000
C      -41.92610000     -33.66620000     -70.85450000
C      -42.21330000     -34.34290000     -72.04580000
C      -42.54470000     -33.64950000     -73.27280000
C      -42.35010000     -32.22080000     -73.29760000
C      -42.09890000     -31.54120000     -72.05490000
H      -41.54930000     -31.75260000     -70.02980000
H      -42.33360000     -35.42500000     -72.02710000
H      -42.44100000     -31.65890000     -74.26250000
H      -41.90150000     -30.45900000     -72.00570000
C      -42.96380000     -34.38880000     -74.49140000
H      -42.67950000     -35.46740000     -74.44630000
H      -42.36150000     -33.99910000     -75.38270000
C      -41.53820000     -34.42690000     -69.64210000
H      -40.64870000     -35.08780000     -69.88810000
H      -41.21690000     -33.82210000     -68.78290000
S      -44.83400000     -34.29930000     -74.93640000
S      -42.89210000     -35.64530000     -69.22570000
C      -45.79820000     -33.56710000     -73.55670000
H      -45.14760000     -33.41990000     -72.74080000
H      -46.09840000     -32.59780000     -73.92230000
C      -44.28350000     -34.36670000     -68.83770000
H      -43.78540000     -33.38600000     -68.86030000
H      -44.73730000     -34.65090000     -67.82010000
C      -45.34590000     -34.37590000     -69.97280000
H      -44.86380000     -34.08550000     -70.89920000
H      -45.83940000     -35.35630000     -70.07900000
C      -46.98860000     -34.38570000     -73.01370000
H      -46.60340000     -35.22240000     -72.53590000
H      -47.48610000     -34.89620000     -73.83740000
C      -47.81400000     -33.48470000     -72.06700000
C      -48.88750000     -32.81300000     -72.55430000
C      -47.45790000     -33.02970000     -70.67460000
H      -49.37430000     -33.16060000     -73.50750000
C      -48.42170000     -32.17370000     -70.26010000
C      -46.42020000     -33.32290000     -69.68590000
C      -46.67820000     -32.62290000     -68.54370000
S      -49.75680000     -31.85130000     -71.37710000
S      -48.10520000     -31.61710000     -68.61080000
H      -46.06980000     -32.44470000     -67.68590000
