40
Properties=species:S:1:pos:R:3 #=T CELL(abcABC):=T 1.889726e+02=T 90.00000=T Traj:=T positionsangstrom=T Step:=T 0=T Bead:=T pbc="F F F"
C      -41.31510000     -32.20260000     -72.02190000
C      -42.44860000     -31.63920000     -72.54060000
C      -43.33580000     -31.00590000     -71.61680000
C      -43.12140000     -31.00000000     -70.24880000
C      -41.90560000     -31.52840000     -69.72410000
C      -40.98810000     -32.07850000     -70.65480000
H      -40.63460000     -32.64240000     -72.69640000
H      -44.14540000     -30.52590000     -72.16910000
H      -41.70040000     -31.53080000     -68.62850000
H      -40.04880000     -32.59850000     -70.25370000
C      -44.10480000     -30.32920000     -69.33220000
H      -44.96010000     -29.87400000     -69.98220000
H      -43.59880000     -29.51540000     -68.77390000
C      -42.82840000     -31.86010000     -73.96040000
H      -42.18230000     -31.23810000     -74.59650000
H      -42.72880000     -32.88800000     -74.18240000
S      -44.68460000     -31.57380000     -68.13940000
S      -44.57090000     -31.43540000     -74.49230000
C      -45.25330000     -33.12780000     -69.22170000
H      -44.54640000     -33.39380000     -70.00070000
H      -45.26960000     -33.87770000     -68.42080000
C      -45.62630000     -32.88530000     -73.80240000
H      -45.86810000     -33.65810000     -74.55950000
H      -46.54640000     -32.36670000     -73.51470000
C      -45.11820000     -33.69720000     -72.62300000
H      -44.17780000     -34.15050000     -72.89820000
H      -45.03740000     -33.10460000     -71.75350000
C      -46.69400000     -32.79880000     -69.79090000
H      -46.54990000     -32.11110000     -70.64640000
H      -47.18820000     -32.19750000     -69.08730000
C      -47.32570000     -34.13980000     -70.06050000
C      -48.27460000     -34.74940000     -69.32020000
C      -46.94690000     -34.93090000     -71.20080000
H      -48.72390000     -34.24820000     -68.42260000
C      -47.79050000     -36.04340000     -71.32570000
C      -45.99610000     -34.84750000     -72.26520000
C      -46.21050000     -35.87020000     -73.21590000
S      -48.96390000     -36.20110000     -70.03720000
S      -47.34760000     -37.08210000     -72.65460000
H      -45.68140000     -36.07260000     -74.15980000
