40
Properties=species:S:1:pos:R:3 #=T CELL(abcABC):=T 1.889726e+02=T 90.00000=T Traj:=T positionsangstrom=T Step:=T 0=T Bead:=T pbc="F F F"
C      -41.56500000     -33.48300000     -71.23410000
C      -42.16160000     -34.73050000     -71.02670000
C      -42.84560000     -35.31630000     -72.12010000
C      -43.08990000     -34.52550000     -73.29070000
C      -42.62470000     -33.22880000     -73.38490000
C      -41.83760000     -32.73400000     -72.35660000
H      -41.07720000     -32.98500000     -70.41430000
H      -43.23430000     -36.33530000     -72.00500000
H      -42.80090000     -32.62270000     -74.24670000
H      -41.41970000     -31.74230000     -72.42580000
C      -44.04820000     -35.16570000     -74.28100000
H      -44.59920000     -35.94510000     -73.73020000
H      -43.47820000     -35.75500000     -75.05290000
C      -42.02270000     -35.49860000     -69.68850000
H      -41.20200000     -36.17970000     -69.65040000
H      -41.71440000     -34.83570000     -68.91440000
S      -45.12910000     -34.01110000     -75.23620000
S      -43.62170000     -36.29180000     -69.22810000
C      -45.66490000     -32.87250000     -73.89950000
H      -44.82380000     -32.48680000     -73.31050000
H      -45.97840000     -31.96730000     -74.42790000
C      -44.64180000     -34.87450000     -68.69030000
H      -44.01130000     -34.21930000     -68.17170000
H      -45.40060000     -35.16940000     -68.00660000
C      -45.35060000     -34.19800000     -69.88350000
H      -44.70150000     -33.83150000     -70.62490000
H      -45.76340000     -35.01830000     -70.45240000
C      -46.71910000     -33.55040000     -72.97970000
H      -46.15890000     -34.35930000     -72.50040000
H      -47.45320000     -34.03650000     -73.65290000
C      -47.32810000     -32.56110000     -72.02280000
C      -48.29630000     -31.67990000     -72.50450000
C      -47.13140000     -32.45050000     -70.57310000
H      -48.73880000     -31.63550000     -73.51660000
C      -47.88160000     -31.41180000     -70.08720000
C      -46.30100000     -33.05880000     -69.57890000
C      -46.52810000     -32.45210000     -68.33040000
S      -48.84800000     -30.55930000     -71.25230000
S      -47.72130000     -31.22300000     -68.35970000
H      -45.90130000     -32.78490000     -67.49620000
