40
Properties=species:S:1:pos:R:3 #=T CELL(abcABC):=T 1.889726e+02=T 90.00000=T Traj:=T positionsangstrom=T Step:=T 0=T Bead:=T pbc="F F F"
C      -41.55000000     -33.64870000     -71.25390000
C      -42.28480000     -34.82280000     -71.02100000
C      -42.99900000     -35.35280000     -72.12490000
C      -43.00760000     -34.67540000     -73.38080000
C      -42.26880000     -33.49970000     -73.55250000
C      -41.50860000     -33.04060000     -72.51020000
H      -40.86710000     -33.19750000     -70.54640000
H      -43.49010000     -36.27380000     -71.95280000
H      -42.26480000     -32.95670000     -74.53490000
H      -40.98150000     -32.12940000     -72.59790000
C      -43.85460000     -35.24350000     -74.49060000
H      -44.49730000     -36.04440000     -74.08230000
H      -43.26410000     -35.63100000     -75.32180000
C      -42.20890000     -35.55600000     -69.71570000
H      -41.52690000     -36.44180000     -69.82200000
H      -41.89980000     -34.88670000     -68.88110000
S      -45.04130000     -34.01470000     -75.28890000
S      -43.77760000     -36.35160000     -69.17120000
C      -45.76460000     -32.83180000     -74.02840000
H      -44.93870000     -32.27740000     -73.54890000
H      -46.33770000     -32.20010000     -74.69180000
C      -44.89560000     -34.91440000     -68.72470000
H      -44.37190000     -34.31510000     -67.91470000
H      -45.80030000     -35.36910000     -68.17480000
C      -45.33130000     -34.04940000     -69.92410000
H      -44.41320000     -33.54430000     -70.35470000
H      -45.93000000     -34.72650000     -70.53820000
C      -46.69240000     -33.43620000     -72.91440000
H      -46.09940000     -34.15620000     -72.37100000
H      -47.59070000     -33.94520000     -73.35630000
C      -47.30950000     -32.38360000     -71.99770000
C      -48.19810000     -31.43490000     -72.43030000
C      -47.16230000     -32.30730000     -70.55260000
H      -48.40710000     -31.29560000     -73.50140000
C      -47.97110000     -31.33610000     -69.94390000
C      -46.34240000     -32.97310000     -69.61360000
C      -46.39520000     -32.42840000     -68.33060000
S      -48.97500000     -30.47490000     -71.14870000
S      -47.63280000     -31.17850000     -68.21640000
H      -45.87990000     -32.90260000     -67.51690000
