40
Properties=species:S:1:pos:R:3 #=T CELL(abcABC):=T 1.889726e+02=T 90.00000=T Traj:=T positionsangstrom=T Step:=T 0=T Bead:=T pbc="F F F"
C      -41.66850000     -32.93700000     -71.08460000
C      -42.04290000     -34.31040000     -70.97140000
C      -42.71370000     -34.89520000     -72.00800000
C      -42.98890000     -34.21420000     -73.16050000
C      -42.71480000     -32.81970000     -73.27180000
C      -42.00510000     -32.22570000     -72.23080000
H      -41.14890000     -32.43820000     -70.30550000
H      -42.91420000     -35.93640000     -71.98590000
H      -43.02080000     -32.26060000     -74.17980000
H      -41.69060000     -31.23380000     -72.33540000
C      -43.80300000     -35.05740000     -74.22340000
H      -44.49670000     -35.75700000     -73.73350000
H      -43.04770000     -35.63380000     -74.89690000
C      -41.84920000     -34.99480000     -69.67690000
H      -40.95980000     -35.60060000     -69.83160000
H      -41.72810000     -34.33680000     -68.76510000
S      -44.90720000     -34.00450000     -75.20840000
S      -43.30330000     -36.12560000     -69.16580000
C      -45.86660000     -33.02940000     -73.90230000
H      -45.19940000     -32.37750000     -73.32010000
H      -46.60380000     -32.39300000     -74.45190000
C      -44.37210000     -34.60090000     -68.72980000
H      -43.73680000     -33.80640000     -68.46710000
H      -44.99080000     -35.01170000     -67.90520000
C      -45.33280000     -34.27290000     -69.87580000
H      -44.80740000     -34.00590000     -70.76840000
H      -45.79740000     -35.28130000     -70.19320000
C      -46.65050000     -33.95000000     -72.93910000
H      -46.00010000     -34.67060000     -72.40860000
H      -47.43060000     -34.50860000     -73.48790000
C      -47.52740000     -32.98290000     -72.04710000
C      -48.47650000     -32.14630000     -72.54920000
C      -47.26390000     -32.70170000     -70.69440000
H      -48.95930000     -32.23220000     -73.53560000
C      -48.08030000     -31.69420000     -70.15810000
C      -46.29060000     -33.14160000     -69.70390000
C      -46.47510000     -32.55950000     -68.48930000
S      -49.16890000     -31.04780000     -71.34380000
S      -47.90740000     -31.42870000     -68.45310000
H      -45.98980000     -32.83330000     -67.58960000
