40
Properties=species:S:1:pos:R:3 #=T CELL(abcABC):=T 1.889726e+02=T 90.00000=T Traj:=T positionsangstrom=T Step:=T 0=T Bead:=T pbc="F F F"
C      -41.24490000     -34.84870000     -71.14360000
C      -42.40770000     -35.66510000     -70.97370000
C      -43.36060000     -35.58110000     -71.95640000
C      -43.14900000     -34.89480000     -73.20940000
C      -41.94920000     -34.19550000     -73.38350000
C      -41.00310000     -34.16310000     -72.34680000
H      -40.48680000     -34.85090000     -70.35130000
H      -44.33300000     -36.03730000     -71.84690000
H      -41.76960000     -33.64130000     -74.26030000
H      -40.18410000     -33.49150000     -72.50600000
C      -44.18830000     -35.03120000     -74.34000000
H      -45.16520000     -35.46560000     -74.12990000
H      -43.72070000     -35.59460000     -75.18360000
C      -42.60070000     -36.53570000     -69.75030000
H      -42.60900000     -37.57720000     -70.10970000
H      -41.83120000     -36.40830000     -69.03110000
S      -44.72240000     -33.40680000     -75.01190000
S      -44.19050000     -36.24260000     -68.82800000
C      -45.48070000     -32.53620000     -73.56750000
H      -44.73510000     -32.51040000     -72.74710000
H      -45.55900000     -31.50780000     -73.91000000
C      -44.75140000     -34.52680000     -68.94470000
H      -43.94440000     -33.87880000     -68.80400000
H      -45.34240000     -34.39630000     -68.02880000
C      -45.59660000     -34.05160000     -70.11550000
H      -44.92680000     -34.05430000     -70.94770000
H      -46.36130000     -34.80480000     -70.36880000
C      -46.80100000     -33.18600000     -73.04070000
H      -46.50830000     -34.17150000     -72.57300000
H      -47.29030000     -33.46540000     -73.98700000
C      -47.48210000     -32.29680000     -72.09880000
C      -48.36750000     -31.34320000     -72.56650000
C      -47.08370000     -32.06830000     -70.74820000
H      -48.59530000     -31.26210000     -73.60890000
C      -47.89020000     -31.08750000     -70.19430000
C      -46.22560000     -32.69490000     -69.84250000
C      -46.20950000     -32.13090000     -68.61050000
S      -48.97760000     -30.31290000     -71.31820000
S      -47.50570000     -30.86840000     -68.53090000
H      -45.60610000     -32.41210000     -67.79950000
