40
Properties=species:S:1:pos:R:3 #=T CELL(abcABC):=T 1.889726e+02=T 90.00000=T Traj:=T positionsangstrom=T Step:=T 0=T Bead:=T pbc="F F F"
C      -41.34840000     -34.83880000     -71.17760000
C      -42.46540000     -35.62000000     -70.93470000
C      -43.43730000     -35.72980000     -71.98230000
C      -43.28050000     -35.03060000     -73.17440000
C      -42.14220000     -34.20490000     -73.34870000
C      -41.20610000     -34.17740000     -72.37520000
H      -40.64680000     -34.79200000     -70.41810000
H      -44.29440000     -36.38160000     -71.86370000
H      -41.97260000     -33.76680000     -74.25730000
H      -40.25820000     -33.69830000     -72.64040000
C      -44.29270000     -35.05430000     -74.34540000
H      -45.22090000     -35.53010000     -74.08970000
H      -43.92470000     -35.71120000     -75.12090000
C      -42.59880000     -36.36760000     -69.63860000
H      -42.29030000     -37.45850000     -69.77480000
H      -41.91050000     -35.90880000     -68.91670000
S      -44.58710000     -33.46370000     -75.16960000
S      -44.32980000     -36.36950000     -68.81510000
C      -45.44510000     -32.55880000     -73.71240000
H      -44.69280000     -32.33880000     -72.92980000
H      -45.79400000     -31.67280000     -74.09170000
C      -44.61720000     -34.51260000     -68.61240000
H      -43.64530000     -33.98290000     -68.37270000
H      -45.24570000     -34.41920000     -67.68440000
C      -45.30120000     -33.93010000     -69.87340000
H      -44.53170000     -33.56740000     -70.63480000
H      -45.87150000     -34.64270000     -70.42700000
C      -46.67480000     -33.27870000     -73.06710000
H      -46.35760000     -34.15120000     -72.54040000
H      -47.51320000     -33.56470000     -73.76510000
C      -47.40320000     -32.38580000     -72.09280000
C      -48.39780000     -31.54490000     -72.58030000
C      -47.06410000     -32.08570000     -70.70260000
H      -48.64700000     -31.68100000     -73.61210000
C      -47.83570000     -31.02020000     -70.23520000
C      -46.24240000     -32.67780000     -69.63520000
C      -46.45890000     -32.00070000     -68.45000000
S      -48.89700000     -30.33340000     -71.45130000
S      -47.42400000     -30.59260000     -68.63740000
H      -46.18620000     -32.37930000     -67.48560000
