40
Properties=species:S:1:pos:R:3 #=T CELL(abcABC):=T 1.889726e+02=T 90.00000=T Traj:=T positionsangstrom=T Step:=T 0=T Bead:=T pbc="F F F"
C      -41.32360000     -34.12240000     -71.28220000
C      -42.32500000     -35.11760000     -71.07620000
C      -43.14030000     -35.41190000     -72.19380000
C      -43.04580000     -34.73480000     -73.39050000
C      -42.16450000     -33.64400000     -73.50740000
C      -41.29360000     -33.36610000     -72.46120000
H      -40.66060000     -33.79220000     -70.47030000
H      -43.74720000     -36.32070000     -72.04320000
H      -42.13380000     -33.18400000     -74.45480000
H      -40.57660000     -32.52420000     -72.68780000
C      -43.98860000     -35.19090000     -74.49480000
H      -44.63520000     -36.01460000     -74.09540000
H      -43.44880000     -35.65450000     -75.37090000
C      -42.29700000     -35.88430000     -69.76390000
H      -41.54040000     -36.73890000     -69.82230000
H      -41.81060000     -35.31350000     -68.97010000
S      -45.02660000     -33.84900000     -75.09840000
S      -43.95600000     -36.43040000     -69.15300000
C      -45.52440000     -32.92570000     -73.51260000
H      -44.68990000     -32.96140000     -72.84760000
H      -45.66850000     -31.85310000     -73.78970000
C      -44.85040000     -34.81470000     -68.81900000
H      -44.21650000     -34.23040000     -68.10580000
H      -45.72300000     -35.15810000     -68.24820000
C      -45.33910000     -34.02260000     -70.06800000
H      -44.50510000     -33.69130000     -70.70540000
H      -45.85710000     -34.75970000     -70.74050000
C      -46.85210000     -33.35910000     -72.90650000
H      -46.66750000     -34.25470000     -72.23940000
H      -47.51980000     -33.67320000     -73.71620000
C      -47.49580000     -32.32170000     -72.04400000
C      -48.28960000     -31.31910000     -72.47290000
C      -47.14430000     -32.19780000     -70.64450000
H      -48.80520000     -31.37890000     -73.37200000
C      -47.92890000     -31.21160000     -70.04530000
C      -46.33360000     -32.93380000     -69.67920000
C      -46.48370000     -32.43840000     -68.40140000
S      -48.81820000     -30.21610000     -71.17760000
S      -47.60260000     -31.05680000     -68.32020000
H      -46.19540000     -32.77070000     -67.42650000
