40
Properties=species:S:1:pos:R:3 #=T CELL(abcABC):=T 1.889726e+02=T 90.00000=T Traj:=T positionsangstrom=T Step:=T 0=T Bead:=T pbc="F F F"
C      -43.66090000     -37.25100000     -71.89590000
C      -44.98960000     -36.85180000     -71.63240000
C      -45.71770000     -36.12640000     -72.59660000
C      -45.11910000     -35.71090000     -73.79440000
C      -43.74450000     -35.99300000     -73.98250000
C      -43.00580000     -36.77090000     -73.04940000
H      -43.09260000     -37.95280000     -71.17020000
H      -46.71320000     -35.76230000     -72.53170000
H      -43.23280000     -35.43310000     -74.73970000
H      -41.96200000     -36.99550000     -73.16740000
C      -45.80030000     -35.08580000     -74.97010000
H      -46.40750000     -35.85450000     -75.56940000
H      -45.08070000     -34.62290000     -75.64060000
C      -45.65560000     -37.23010000     -70.34650000
H      -46.24920000     -38.18130000     -70.32900000
H      -44.85450000     -37.36840000     -69.57770000
S      -47.06450000     -33.84260000     -74.49330000
S      -46.77220000     -35.91740000     -69.58380000
C      -46.10490000     -32.59400000     -73.34720000
H      -45.18410000     -33.00680000     -72.91110000
H      -45.81210000     -31.69480000     -73.83970000
C      -45.63260000     -34.56610000     -68.96180000
H      -44.95330000     -34.95450000     -68.15390000
H      -46.30510000     -33.92500000     -68.48240000
C      -44.68570000     -33.94650000     -70.03480000
H      -43.74000000     -34.49220000     -70.08690000
H      -45.19960000     -34.04520000     -71.01270000
C      -47.02150000     -32.14540000     -72.14540000
H      -47.12700000     -33.09910000     -71.60750000
H      -47.95920000     -31.71870000     -72.60490000
C      -46.21160000     -31.14760000     -71.30710000
C      -46.48620000     -29.81140000     -71.39970000
C      -45.15460000     -31.38500000     -70.33420000
H      -47.18680000     -29.39350000     -72.11510000
C      -44.70890000     -30.17840000     -69.78820000
C      -44.47290000     -32.49280000     -69.70430000
C      -43.56850000     -32.10630000     -68.77800000
S      -45.36620000     -28.78660000     -70.54870000
S      -43.49400000     -30.39720000     -68.55230000
H      -42.89290000     -32.77020000     -68.18430000
