40
Properties=species:S:1:pos:R:3 #=T CELL(abcABC):=T 1.889726e+02=T 90.00000=T Traj:=T positionsangstrom=T Step:=T 0=T Bead:=T pbc="F F F"
C      -41.39830000     -34.78630000     -71.10580000
C      -42.58170000     -35.57370000     -70.85810000
C      -43.47290000     -35.78640000     -71.94060000
C      -43.29240000     -35.11440000     -73.15970000
C      -42.09020000     -34.38380000     -73.34370000
C      -41.18410000     -34.12930000     -72.27790000
H      -40.61170000     -34.62490000     -70.37390000
H      -44.34060000     -36.46230000     -71.78530000
H      -41.91830000     -33.85670000     -74.28960000
H      -40.34890000     -33.45220000     -72.39740000
C      -44.25850000     -35.34130000     -74.23290000
H      -45.13030000     -35.94600000     -73.82600000
H      -43.71750000     -35.78460000     -75.09200000
C      -42.72100000     -36.26030000     -69.56800000
H      -42.52140000     -37.28420000     -69.65910000
H      -41.96970000     -35.90320000     -68.87670000
S      -44.74610000     -33.59530000     -75.07000000
S      -44.38300000     -36.21780000     -68.92840000
C      -45.42990000     -32.65920000     -73.68680000
H      -44.65080000     -32.38900000     -72.94940000
H      -45.85450000     -31.69140000     -74.03400000
C      -44.89590000     -34.44810000     -68.54010000
H      -44.17000000     -33.89440000     -67.92510000
H      -45.79850000     -34.53500000     -68.02970000
C      -45.17730000     -33.69700000     -69.90070000
H      -44.25100000     -33.40030000     -70.38790000
H      -45.62460000     -34.44980000     -70.53970000
C      -46.54420000     -33.41960000     -72.92110000
H      -46.15150000     -34.17010000     -72.26130000
H      -47.17410000     -33.93720000     -73.67020000
C      -47.24580000     -32.39980000     -72.08450000
C      -48.17860000     -31.59170000     -72.69420000
C      -46.99000000     -32.03990000     -70.71370000
H      -48.55030000     -31.80810000     -73.72930000
C      -47.79910000     -31.01550000     -70.32430000
C      -46.07030000     -32.47660000     -69.70000000
C      -46.29060000     -31.85570000     -68.47420000
S      -48.82990000     -30.38590000     -71.61580000
S      -47.51610000     -30.57610000     -68.65330000
H      -45.71670000     -32.02710000     -67.53100000
