40
Properties=species:S:1:pos:R:3 #=T CELL(abcABC):=T 1.889726e+02=T 90.00000=T Traj:=T positionsangstrom=T Step:=T 0=T Bead:=T pbc="F F F"
C      -41.47320000     -34.91560000     -70.44140000
C      -42.67260000     -35.61440000     -70.16250000
C      -43.53150000     -35.97890000     -71.21400000
C      -43.24290000     -35.54980000     -72.53130000
C      -42.08190000     -34.73200000     -72.80740000
C      -41.18670000     -34.47230000     -71.74070000
H      -40.85910000     -34.61030000     -69.61530000
H      -44.32040000     -36.60390000     -70.93820000
H      -41.92160000     -34.52660000     -73.87350000
H      -40.35220000     -33.83800000     -71.83230000
C      -44.16940000     -36.10080000     -73.59150000
H      -45.02160000     -36.47740000     -73.03170000
H      -43.75260000     -36.91750000     -74.16590000
C      -43.01370000     -35.96660000     -68.70130000
H      -42.59970000     -36.97110000     -68.33950000
H      -42.55050000     -35.27260000     -68.01370000
S      -44.85030000     -34.94310000     -74.89190000
S      -44.84380000     -35.92720000     -68.26300000
C      -45.14290000     -33.36890000     -73.88820000
H      -44.50000000     -33.24640000     -72.97880000
H      -44.98020000     -32.50770000     -74.65000000
C      -45.38270000     -34.18840000     -68.46390000
H      -44.61430000     -33.43950000     -68.20610000
H      -46.13940000     -34.00340000     -67.69850000
C      -45.91720000     -33.77040000     -69.92660000
H      -45.07330000     -33.96680000     -70.55930000
H      -46.63150000     -34.58800000     -70.31270000
C      -46.58420000     -33.41090000     -73.33850000
H      -46.59910000     -34.23400000     -72.61920000
H      -47.25200000     -33.63940000     -74.17130000
C      -47.08780000     -32.12190000     -72.67130000
C      -47.58930000     -31.07490000     -73.39940000
C      -47.02920000     -31.78880000     -71.24340000
H      -47.73920000     -31.04940000     -74.45580000
C      -47.48340000     -30.48270000     -70.98790000
C      -46.58650000     -32.40350000     -70.01300000
C      -46.68600000     -31.53560000     -68.91500000
S      -48.02730000     -29.68530000     -72.43770000
S      -47.20420000     -29.96640000     -69.35800000
H      -46.29380000     -31.84410000     -67.91040000
