40
Properties=species:S:1:pos:R:3 #=T CELL(abcABC):=T 1.889726e+02=T 90.00000=T Traj:=T positionsangstrom=T Step:=T 0=T Bead:=T pbc="F F F"
C      -41.28740000     -34.91750000     -70.72510000
C      -42.49360000     -35.59550000     -70.51660000
C      -43.25940000     -35.98350000     -71.69580000
C      -43.04380000     -35.38770000     -72.89530000
C      -41.84600000     -34.62440000     -73.06230000
C      -40.93310000     -34.44150000     -72.01980000
H      -40.60540000     -34.97750000     -69.86120000
H      -44.14650000     -36.55540000     -71.49620000
H      -41.56150000     -34.06810000     -73.95870000
H      -40.06570000     -33.85730000     -72.25520000
C      -43.89470000     -35.72250000     -74.11490000
H      -44.62880000     -36.50690000     -73.99040000
H      -43.20600000     -36.11460000     -74.87080000
C      -42.95300000     -36.03770000     -69.16180000
H      -42.57040000     -37.10700000     -68.90550000
H      -42.39180000     -35.42690000     -68.42480000
S      -44.77470000     -34.33730000     -74.88090000
S      -44.78050000     -36.04540000     -68.95950000
C      -45.21220000     -33.21220000     -73.45470000
H      -44.57820000     -33.47010000     -72.68330000
H      -44.97690000     -32.16400000     -73.71270000
C      -45.16680000     -34.23700000     -68.64470000
H      -44.55790000     -33.89710000     -67.83670000
H      -46.19090000     -34.23040000     -68.20990000
C      -45.11940000     -33.42230000     -69.92580000
H      -44.11000000     -33.03000000     -70.04970000
H      -45.30190000     -34.04090000     -70.82890000
C      -46.72120000     -33.41480000     -73.14990000
H      -46.79520000     -34.44840000     -72.65270000
H      -47.32130000     -33.42470000     -74.08170000
C      -47.36150000     -32.25260000     -72.31170000
C      -48.44110000     -31.55880000     -72.83550000
C      -47.01510000     -31.87360000     -70.93680000
H      -48.95040000     -31.68450000     -73.83330000
C      -47.84500000     -30.81300000     -70.52610000
C      -46.09690000     -32.24440000     -69.85820000
C      -46.15400000     -31.35620000     -68.82490000
S      -48.85030000     -30.18510000     -71.80620000
S      -47.38750000     -30.13820000     -69.00370000
H      -45.67870000     -31.41840000     -67.85430000
