40
Properties=species:S:1:pos:R:3 #=T CELL(abcABC):=T 1.889726e+02=T 90.00000=T Traj:=T positionsangstrom=T Step:=T 0=T Bead:=T pbc="F F F"
C      -47.94340000     -36.07390000     -72.16190000
C      -46.61430000     -36.21790000     -72.60560000
C      -46.20130000     -35.34560000     -73.61840000
C      -47.08560000     -34.56530000     -74.38640000
C      -48.37670000     -34.46920000     -73.91560000
C      -48.81200000     -35.17640000     -72.77970000
H      -48.33630000     -36.77950000     -71.40770000
H      -45.14060000     -35.33340000     -73.84730000
H      -49.02250000     -33.72150000     -74.43270000
H      -49.80490000     -35.05420000     -72.45310000
C      -46.61950000     -33.66580000     -75.42200000
H      -47.46230000     -33.05220000     -75.66290000
H      -46.40210000     -34.21000000     -76.39460000
C      -45.63240000     -37.04830000     -71.90040000
H      -45.83310000     -38.04590000     -72.22140000
H      -44.54460000     -36.77980000     -72.22660000
S      -45.13890000     -32.65490000     -75.02540000
S      -45.63830000     -37.06360000     -70.06080000
C      -45.45760000     -31.82880000     -73.40350000
H      -45.70260000     -30.79910000     -73.60070000
H      -46.23250000     -32.25020000     -72.87040000
C      -45.53330000     -35.32400000     -69.58750000
H      -45.78680000     -35.17890000     -68.47700000
H      -46.38280000     -34.71090000     -70.01960000
C      -44.14720000     -34.64930000     -70.09140000
H      -43.31150000     -35.18380000     -69.68430000
H      -44.12860000     -34.65390000     -71.18320000
C      -44.12850000     -31.93610000     -72.58640000
H      -43.20450000     -31.53840000     -73.08320000
H      -43.83010000     -32.98000000     -72.56570000
C      -44.21990000     -31.25870000     -71.18040000
C      -44.30050000     -29.85910000     -71.10280000
C      -44.12250000     -31.91920000     -69.91680000
H      -44.29490000     -29.07430000     -71.86350000
C      -44.12630000     -31.01390000     -68.86520000
C      -43.95440000     -33.32000000     -69.46730000
C      -43.75200000     -33.33580000     -68.13050000
S      -44.19230000     -29.34210000     -69.44810000
S      -43.96210000     -31.76870000     -67.25710000
H      -43.66160000     -34.20250000     -67.46390000
