40
Properties=species:S:1:pos:R:3 #=T CELL(abcABC):=T 1.889726e+02=T 90.00000=T Traj:=T positionsangstrom=T Step:=T 0=T Bead:=T pbc="F F F"
C      -42.09250000     -35.05700000     -69.50420000
C      -43.41650000     -35.63680000     -69.39000000
C      -44.04640000     -36.05800000     -70.56950000
C      -43.42960000     -35.94560000     -71.82600000
C      -42.08460000     -35.50270000     -71.91130000
C      -41.43640000     -34.99370000     -70.76380000
H      -41.58600000     -34.77540000     -68.62520000
H      -45.01650000     -36.55700000     -70.58210000
H      -41.62570000     -35.46110000     -72.88610000
H      -40.55570000     -34.40810000     -70.93400000
C      -44.16870000     -36.36490000     -73.05090000
H      -45.16670000     -36.60310000     -72.79330000
H      -43.63280000     -37.27540000     -73.39580000
C      -44.08510000     -35.85140000     -68.02360000
H      -44.07630000     -36.94090000     -67.81310000
H      -43.44950000     -35.33440000     -67.27990000
S      -43.93450000     -35.11370000     -74.42480000
S      -45.89880000     -35.49370000     -68.02160000
C      -44.59790000     -33.55250000     -73.69700000
H      -44.08150000     -33.41540000     -72.77700000
H      -44.20520000     -32.73530000     -74.38520000
C      -45.89850000     -33.69560000     -68.54250000
H      -45.21580000     -33.12770000     -67.94390000
H      -46.84470000     -33.27200000     -68.16540000
C      -45.84070000     -33.47070000     -70.08590000
H      -44.81330000     -33.64090000     -70.47950000
H      -46.56300000     -34.09290000     -70.58700000
C      -46.13110000     -33.62410000     -73.48150000
H      -46.21270000     -34.35910000     -72.64670000
H      -46.60510000     -34.03710000     -74.37280000
C      -46.71940000     -32.25130000     -73.13040000
C      -47.20890000     -31.37940000     -74.05980000
C      -46.75020000     -31.67280000     -71.74710000
H      -47.09210000     -31.31020000     -75.12890000
C      -47.20580000     -30.40740000     -71.75350000
C      -46.15380000     -32.02820000     -70.47460000
C      -46.26230000     -31.05290000     -69.56400000
S      -47.73920000     -29.90200000     -73.35210000
S      -47.05910000     -29.59190000     -70.19970000
H      -45.86240000     -31.04120000     -68.58130000
