40
Properties=species:S:1:pos:R:3 #=T CELL(abcABC):=T 1.889726e+02=T 90.00000=T Traj:=T positionsangstrom=T Step:=T 0=T Bead:=T pbc="F F F"
C      -41.95340000     -35.24060000     -69.35550000
C      -43.25100000     -35.82130000     -69.29850000
C      -43.80960000     -36.27430000     -70.48350000
C      -43.24610000     -35.98760000     -71.71180000
C      -41.98460000     -35.36410000     -71.78070000
C      -41.34270000     -35.07310000     -70.56230000
H      -41.51870000     -34.78330000     -68.44330000
H      -44.78740000     -36.84340000     -70.48450000
H      -41.63450000     -35.08590000     -72.84880000
H      -40.30540000     -34.81020000     -70.63380000
C      -43.80660000     -36.42270000     -73.09080000
H      -44.77730000     -36.98000000     -73.05170000
H      -43.11900000     -37.13210000     -73.54080000
C      -44.04540000     -35.99360000     -68.01650000
H      -44.17970000     -37.04830000     -67.81050000
H      -43.60310000     -35.53240000     -67.14190000
S      -44.05100000     -35.14730000     -74.43060000
S      -45.87860000     -35.47050000     -68.21100000
C      -44.67270000     -33.69240000     -73.53750000
H      -44.27410000     -33.44660000     -72.52310000
H      -44.42860000     -32.82230000     -74.11630000
C      -45.75340000     -33.67990000     -68.64520000
H      -44.74690000     -33.46710000     -68.35220000
H      -46.43220000     -33.13880000     -67.94430000
C      -46.09410000     -33.40600000     -70.17010000
H      -45.20940000     -33.72910000     -70.76970000
H      -46.92170000     -34.04690000     -70.43460000
C      -46.20910000     -33.60110000     -73.41570000
H      -46.59050000     -34.28070000     -72.66130000
H      -46.73110000     -33.95020000     -74.32030000
C      -46.74850000     -32.18880000     -73.12990000
C      -47.44370000     -31.42650000     -74.03910000
C      -46.71510000     -31.55010000     -71.82540000
H      -47.54310000     -31.71730000     -75.11530000
C      -46.95620000     -30.18010000     -71.88230000
C      -46.31560000     -31.99000000     -70.53560000
C      -46.57560000     -31.03180000     -69.62240000
S      -47.82310000     -29.81050000     -73.32900000
S      -47.08640000     -29.48340000     -70.22470000
H      -46.40550000     -31.08710000     -68.54550000
