40
Properties=species:S:1:pos:R:3 #=T CELL(abcABC):=T 1.889726e+02=T 90.00000=T Traj:=T positionsangstrom=T Step:=T 0=T Bead:=T pbc="F F F"
C      -48.02150000     -36.03870000     -72.08840000
C      -46.65610000     -36.06360000     -72.49100000
C      -46.25280000     -35.40430000     -73.63060000
C      -47.10520000     -34.45030000     -74.24970000
C      -48.44480000     -34.42840000     -73.81680000
C      -48.89800000     -35.18130000     -72.72680000
H      -48.24960000     -36.53610000     -71.16110000
H      -45.26170000     -35.54260000     -73.96110000
H      -49.07700000     -33.72530000     -74.28760000
H      -49.92940000     -35.13640000     -72.30610000
C      -46.61490000     -33.65980000     -75.37950000
H      -47.41820000     -32.95520000     -75.71720000
H      -46.36920000     -34.26300000     -76.22290000
C      -45.72720000     -37.24410000     -71.98240000
H      -46.16290000     -38.17640000     -72.33540000
H      -44.76070000     -37.32370000     -72.39880000
S      -45.01720000     -32.68470000     -75.08240000
S      -45.52030000     -37.24920000     -70.14210000
C      -45.46650000     -31.85130000     -73.49700000
H      -45.66520000     -30.75810000     -73.77300000
H      -46.36210000     -32.30990000     -72.96050000
C      -45.40110000     -35.44760000     -69.63990000
H      -45.33810000     -35.54920000     -68.54330000
H      -46.34050000     -35.03820000     -69.91250000
C      -44.25880000     -34.53030000     -70.15610000
H      -43.30450000     -35.10140000     -69.99190000
H      -44.29790000     -34.44860000     -71.23720000
C      -44.23880000     -32.03690000     -72.58030000
H      -43.38860000     -31.60520000     -73.14820000
H      -44.02420000     -33.12080000     -72.53880000
C      -44.27350000     -31.30530000     -71.20830000
C      -44.29560000     -29.90530000     -71.14140000
C      -44.07870000     -31.92700000     -69.90540000
H      -44.45360000     -29.21140000     -72.00830000
C      -43.99880000     -30.93830000     -68.89890000
C      -44.13860000     -33.28830000     -69.33980000
C      -44.13960000     -33.19430000     -67.97440000
S      -44.14060000     -29.34590000     -69.44060000
S      -43.84560000     -31.55070000     -67.27150000
H      -43.94170000     -34.05130000     -67.27620000
