40
Properties=species:S:1:pos:R:3 #=T CELL(abcABC):=T 1.889726e+02=T 90.00000=T Traj:=T positionsangstrom=T Step:=T 0=T Bead:=T pbc="F F F"
C      -43.69160000     -36.82440000     -71.73720000
C      -45.12470000     -36.77110000     -71.71330000
C      -45.80400000     -36.28920000     -72.86180000
C      -45.13690000     -35.83020000     -73.99030000
C      -43.72000000     -35.94360000     -74.01700000
C      -42.99910000     -36.39450000     -72.87340000
H      -43.30140000     -37.16910000     -70.76200000
H      -46.91760000     -36.20040000     -72.78530000
H      -43.12080000     -35.68240000     -74.89910000
H      -41.89580000     -36.43200000     -72.94270000
C      -45.90040000     -35.28510000     -75.12040000
H      -46.66060000     -35.99920000     -75.45220000
H      -45.34920000     -34.89180000     -75.98190000
C      -45.74480000     -37.16500000     -70.40610000
H      -46.33440000     -38.10830000     -70.52180000
H      -44.93860000     -37.47440000     -69.76570000
S      -46.96100000     -33.95540000     -74.41980000
S      -46.84860000     -35.87430000     -69.74290000
C      -45.91240000     -32.70700000     -73.49380000
H      -44.99020000     -33.21030000     -73.14230000
H      -45.59460000     -31.91980000     -74.24770000
C      -45.83770000     -34.54030000     -69.07620000
H      -45.38530000     -34.87680000     -68.18840000
H      -46.46530000     -33.63580000     -68.74270000
C      -44.69450000     -33.94080000     -69.90320000
H      -43.76850000     -34.49620000     -69.75900000
H      -44.91130000     -34.05570000     -70.97540000
C      -46.73150000     -32.22400000     -72.28910000
H      -46.88350000     -33.17410000     -71.80170000
H      -47.71100000     -32.02860000     -72.61930000
C      -46.03120000     -31.20830000     -71.39660000
C      -46.33940000     -29.89180000     -71.48040000
C      -45.03690000     -31.39700000     -70.32840000
H      -47.05620000     -29.51450000     -72.23060000
C      -44.56520000     -30.18130000     -69.78770000
C      -44.43950000     -32.49280000     -69.59500000
C      -43.59570000     -32.12760000     -68.57380000
S      -45.50090000     -28.80170000     -70.42160000
S      -43.53450000     -30.36520000     -68.34540000
H      -43.14670000     -32.85580000     -67.95480000
