40
Properties=species:S:1:pos:R:3 #=T CELL(abcABC):=T 1.889726e+02=T 90.00000=T Traj:=T positionsangstrom=T Step:=T 0=T Bead:=T pbc="F F F"
C      -48.05670000     -36.17870000     -72.17310000
C      -46.71980000     -36.27220000     -72.54780000
C      -46.28570000     -35.44470000     -73.59520000
C      -47.14710000     -34.49650000     -74.13800000
C      -48.43850000     -34.27630000     -73.58010000
C      -48.88600000     -35.13710000     -72.59710000
H      -48.46380000     -36.97400000     -71.59580000
H      -45.25280000     -35.55940000     -73.97890000
H      -49.06940000     -33.59340000     -74.09780000
H      -49.98040000     -35.24930000     -72.33310000
C      -46.68830000     -33.65500000     -75.23450000
H      -47.50420000     -32.95810000     -75.47440000
H      -46.33500000     -34.24050000     -76.08230000
C      -45.84470000     -37.32980000     -71.94370000
H      -46.38450000     -38.32490000     -72.05990000
H      -44.93440000     -37.27130000     -72.54470000
S      -45.06590000     -32.67660000     -75.03260000
S      -45.26650000     -37.19060000     -70.21950000
C      -45.29680000     -31.90830000     -73.41620000
H      -45.49330000     -30.89870000     -73.62720000
H      -46.18880000     -32.28120000     -72.94450000
C      -45.54030000     -35.44330000     -69.62690000
H      -45.62250000     -35.45810000     -68.54280000
H      -46.55910000     -35.21260000     -69.97020000
C      -44.46020000     -34.55860000     -70.04380000
H      -43.57660000     -35.17210000     -69.80170000
H      -44.41980000     -34.41570000     -71.08130000
C      -44.11280000     -32.09320000     -72.59910000
H      -43.29040000     -31.71060000     -73.12660000
H      -44.01290000     -33.15900000     -72.48530000
C      -44.16950000     -31.35650000     -71.23020000
C      -44.09970000     -29.96980000     -71.24900000
C      -44.25360000     -31.92440000     -69.87670000
H      -44.13340000     -29.38990000     -72.16950000
C      -44.17510000     -30.86280000     -68.94700000
C      -44.22700000     -33.22450000     -69.30730000
C      -44.04770000     -33.15830000     -67.95770000
S      -44.09640000     -29.27590000     -69.60930000
S      -43.90060000     -31.51010000     -67.33760000
H      -44.07790000     -33.91480000     -67.18080000
