40
Properties=species:S:1:pos:R:3 #=T CELL(abcABC):=T 1.889726e+02=T 90.00000=T Traj:=T positionsangstrom=T Step:=T 0=T Bead:=T pbc="F F F"
C      -42.48770000     -35.41200000     -69.69500000
C      -43.74940000     -36.04070000     -69.78260000
C      -44.23110000     -36.27810000     -71.04590000
C      -43.51890000     -36.10140000     -72.20750000
C      -42.23150000     -35.60650000     -72.11330000
C      -41.70610000     -35.25840000     -70.80660000
H      -42.08070000     -34.88630000     -68.81990000
H      -45.30620000     -36.54700000     -71.13650000
H      -41.57750000     -35.48360000     -72.98220000
H      -40.74620000     -34.68240000     -70.85130000
C      -44.02220000     -36.46260000     -73.52870000
H      -45.05680000     -36.87350000     -73.45560000
H      -43.34940000     -37.22290000     -73.99710000
C      -44.52020000     -36.19910000     -68.42920000
H      -44.30950000     -37.14970000     -67.99540000
H      -44.06980000     -35.49380000     -67.72880000
S      -44.15400000     -34.99940000     -74.79630000
S      -46.43730000     -36.06410000     -68.54340000
C      -44.47900000     -33.43190000     -73.77480000
H      -43.85950000     -33.36690000     -72.93760000
H      -44.15780000     -32.58690000     -74.42070000
C      -46.67530000     -34.18430000     -68.71350000
H      -45.85940000     -33.78070000     -68.13010000
H      -47.65960000     -33.93960000     -68.18050000
C      -46.77400000     -33.67690000     -70.12710000
H      -46.03760000     -34.08890000     -70.76840000
H      -47.80130000     -34.09070000     -70.42520000
C      -45.96040000     -33.17300000     -73.37690000
H      -46.19070000     -33.92710000     -72.61280000
H      -46.52020000     -33.33110000     -74.33070000
C      -46.22650000     -31.73140000     -72.88640000
C      -46.25920000     -30.57950000     -73.66860000
C      -46.53280000     -31.45110000     -71.49520000
H      -45.89260000     -30.52060000     -74.77030000
C      -46.61530000     -30.05650000     -71.30950000
C      -46.69940000     -32.20860000     -70.27570000
C      -46.82840000     -31.38950000     -69.17180000
S      -46.46960000     -29.08510000     -72.70830000
S      -46.67610000     -29.65240000     -69.56650000
H      -46.89060000     -31.67180000     -68.11870000
