40
Properties=species:S:1:pos:R:3 #=T CELL(abcABC):=T 1.889726e+02=T 90.00000=T Traj:=T positionsangstrom=T Step:=T 0=T Bead:=T pbc="F F F"
C      -42.45330000     -35.55140000     -69.74100000
C      -43.76310000     -36.06860000     -69.74290000
C      -44.33010000     -36.18890000     -71.02450000
C      -43.61060000     -36.05970000     -72.17510000
C      -42.21740000     -35.68720000     -72.10630000
C      -41.69200000     -35.27240000     -70.89240000
H      -42.01160000     -35.45220000     -68.72970000
H      -45.35260000     -36.49240000     -71.09940000
H      -41.71720000     -35.66920000     -73.04120000
H      -40.61550000     -35.08690000     -70.87570000
C      -44.27930000     -36.31510000     -73.49610000
H      -45.27370000     -36.66800000     -73.20710000
H      -43.72420000     -37.12660000     -73.98020000
C      -44.66070000     -36.23330000     -68.52220000
H      -44.52270000     -37.26600000     -68.08700000
H      -44.43290000     -35.52250000     -67.67950000
S      -44.25880000     -34.91030000     -74.54960000
S      -46.43620000     -36.07420000     -68.74790000
C      -44.59470000     -33.53350000     -73.43900000
H      -44.53260000     -34.01290000     -72.42540000
H      -43.77220000     -32.80190000     -73.47240000
C      -46.63200000     -34.24980000     -68.80070000
H      -45.71640000     -33.81480000     -68.38540000
H      -47.53650000     -33.95500000     -68.27300000
C      -46.72110000     -33.64480000     -70.18440000
H      -45.95110000     -34.08180000     -70.81240000
H      -47.64280000     -33.93910000     -70.73960000
C      -46.03500000     -33.04510000     -73.62190000
H      -46.75890000     -33.87220000     -73.43770000
H      -46.25740000     -32.73460000     -74.60150000
C      -46.17490000     -31.74790000     -72.87780000
C      -46.06790000     -30.60680000     -73.63930000
C      -46.44430000     -31.43350000     -71.46030000
H      -45.83340000     -30.63380000     -74.72620000
C      -46.43720000     -30.06570000     -71.29060000
C      -46.59030000     -32.16930000     -70.24070000
C      -46.80800000     -31.34480000     -69.15860000
S      -46.24710000     -29.14640000     -72.69890000
S      -46.76340000     -29.64070000     -69.61550000
H      -46.77730000     -31.73110000     -68.10560000
