40
Properties=species:S:1:pos:R:3 #=T CELL(abcABC):=T 1.889726e+02=T 90.00000=T Traj:=T positionsangstrom=T Step:=T 0=T Bead:=T pbc="F F F"
C      -47.98510000     -36.79510000     -73.28210000
C      -46.67530000     -36.48100000     -72.92740000
C      -46.07130000     -35.30930000     -73.54150000
C      -46.82610000     -34.57790000     -74.47500000
C      -48.12350000     -34.83290000     -74.75410000
C      -48.72190000     -36.00340000     -74.21360000
H      -48.49000000     -37.67450000     -72.91420000
H      -45.10170000     -34.97920000     -73.21910000
H      -48.56200000     -34.31720000     -75.55350000
H      -49.69490000     -36.35600000     -74.54050000
C      -46.18720000     -33.40250000     -75.22900000
H      -46.68400000     -32.44230000     -75.08320000
H      -46.22520000     -33.65150000     -76.26380000
C      -45.97470000     -37.23200000     -71.83300000
H      -46.06590000     -38.26830000     -71.93140000
H      -44.92240000     -37.01740000     -71.96160000
S      -44.44550000     -33.08520000     -74.77090000
S      -46.56960000     -36.63460000     -70.15370000
C      -44.57400000     -32.30690000     -73.10640000
H      -44.74740000     -31.28150000     -73.44560000
H      -45.48240000     -32.70630000     -72.59160000
C      -46.11980000     -34.81570000     -70.06910000
H      -46.74670000     -34.27360000     -69.30400000
H      -46.37380000     -34.42570000     -71.06620000
C      -44.68210000     -34.45050000     -69.62500000
H      -44.27730000     -35.18200000     -68.85420000
H      -44.00530000     -34.48840000     -70.42480000
C      -43.33230000     -32.26640000     -72.15300000
H      -42.48060000     -31.95060000     -72.77550000
H      -43.03550000     -33.30610000     -71.78790000
C      -43.60240000     -31.39050000     -70.91780000
C      -43.23010000     -30.03230000     -70.91300000
C      -44.07400000     -31.85190000     -69.61400000
H      -42.97260000     -29.62550000     -71.82200000
C      -44.13270000     -30.79940000     -68.70020000
C      -44.67870000     -33.06590000     -69.00120000
C      -44.94920000     -32.91040000     -67.63110000
S      -43.58690000     -29.23470000     -69.37260000
S      -44.79120000     -31.24410000     -67.13950000
H      -45.48560000     -33.59370000     -66.89740000
