40
Properties=species:S:1:pos:R:3 #=T CELL(abcABC):=T 1.889726e+02=T 90.00000=T Traj:=T positionsangstrom=T Step:=T 0=T Bead:=T pbc="F F F"
C      -43.54760000     -36.72350000     -69.12560000
C      -44.85510000     -36.84220000     -69.63670000
C      -45.01350000     -36.64380000     -70.97620000
C      -43.88560000     -36.39000000     -71.79310000
C      -42.57150000     -36.37620000     -71.28060000
C      -42.42040000     -36.56200000     -69.89300000
H      -43.42400000     -36.81960000     -68.01940000
H      -46.00010000     -36.55550000     -71.37490000
H      -41.68890000     -36.05730000     -71.97150000
H      -41.50230000     -36.51490000     -69.36770000
C      -44.06220000     -36.31570000     -73.31790000
H      -45.13210000     -36.28880000     -73.59280000
H      -43.54750000     -37.21250000     -73.70950000
C      -46.01740000     -36.83400000     -68.73210000
H      -46.55580000     -37.77030000     -68.68540000
H      -45.74860000     -36.62830000     -67.74630000
S      -43.36610000     -34.74620000     -74.06910000
S      -47.52820000     -35.77120000     -69.31840000
C      -44.07460000     -33.40980000     -73.06330000
H      -44.22400000     -33.77110000     -72.06690000
H      -43.19560000     -32.68500000     -73.02440000
C      -46.75950000     -34.07390000     -69.15070000
H      -45.86270000     -34.11510000     -68.60260000
H      -47.44820000     -33.41770000     -68.58340000
C      -46.50780000     -33.41180000     -70.53040000
H      -45.66770000     -34.02860000     -70.99590000
H      -47.39370000     -33.60670000     -71.15740000
C      -45.39730000     -32.82400000     -73.63100000
H      -46.28090000     -33.41030000     -73.26010000
H      -45.47340000     -32.90380000     -74.70000000
C      -45.71900000     -31.44260000     -73.09980000
C      -45.70180000     -30.30140000     -73.86490000
C      -45.98910000     -31.11680000     -71.67380000
H      -45.52580000     -30.30400000     -74.92290000
C      -46.00150000     -29.78090000     -71.50010000
C      -46.20520000     -31.92070000     -70.51780000
C      -46.41410000     -31.14330000     -69.42750000
S      -45.76460000     -28.72330000     -72.89650000
S      -46.34680000     -29.36290000     -69.82470000
H      -46.58360000     -31.42970000     -68.38580000
