40
Properties=species:S:1:pos:R:3 #=T CELL(abcABC):=T 1.889726e+02=T 90.00000=T Traj:=T positionsangstrom=T Step:=T 0=T Bead:=T pbc="F F F"
C      -42.76290000     -35.92170000     -69.36580000
C      -44.13320000     -36.07230000     -69.62730000
C      -44.62680000     -36.29280000     -70.94520000
C      -43.76240000     -36.35700000     -72.04540000
C      -42.45460000     -36.12510000     -71.80600000
C      -41.90090000     -36.00530000     -70.50030000
H      -42.29890000     -35.85620000     -68.38780000
H      -45.67490000     -36.52170000     -71.06490000
H      -41.75310000     -36.06020000     -72.62780000
H      -40.84370000     -35.90560000     -70.47360000
C      -44.21460000     -36.53610000     -73.45890000
H      -45.24820000     -37.03640000     -73.45750000
H      -43.43900000     -37.22880000     -73.92640000
C      -44.98910000     -36.31730000     -68.47110000
H      -44.92830000     -37.40880000     -68.27010000
H      -44.61230000     -35.71450000     -67.65890000
S      -44.20220000     -34.97880000     -74.61790000
S      -46.79630000     -35.93500000     -68.79560000
C      -44.29880000     -33.56430000     -73.50990000
H      -44.11090000     -33.80870000     -72.44120000
H      -43.50270000     -32.85170000     -73.81260000
C      -46.71910000     -34.08780000     -68.86690000
H      -46.23530000     -33.81360000     -67.92640000
H      -47.79340000     -33.71300000     -68.67540000
C      -46.09220000     -33.51550000     -70.16640000
H      -44.98080000     -33.79060000     -70.19990000
H      -46.49600000     -34.09610000     -70.98560000
C      -45.65910000     -32.85330000     -73.67960000
H      -46.31950000     -33.63930000     -73.22270000
H      -45.75520000     -32.80710000     -74.74650000
C      -45.82160000     -31.54840000     -72.95870000
C      -45.79630000     -30.38350000     -73.66050000
C      -45.99240000     -31.26330000     -71.56190000
H      -45.56990000     -30.30820000     -74.76890000
C      -46.34610000     -29.91920000     -71.31870000
C      -46.25850000     -32.03000000     -70.30660000
C      -46.74550000     -31.21770000     -69.28730000
S      -46.25380000     -28.97190000     -72.79970000
S      -46.86670000     -29.54750000     -69.75010000
H      -46.88620000     -31.61330000     -68.30790000
