40
Properties=species:S:1:pos:R:3 #=T CELL(abcABC):=T 1.889726e+02=T 90.00000=T Traj:=T positionsangstrom=T Step:=T 0=T Bead:=T pbc="F F F"
C      -43.53330000     -36.67560000     -71.70900000
C      -44.95760000     -36.72010000     -71.61550000
C      -45.65450000     -36.19950000     -72.69830000
C      -45.00380000     -35.71810000     -73.86510000
C      -43.60420000     -35.69490000     -73.92660000
C      -42.82870000     -36.23990000     -72.87930000
H      -42.99620000     -36.98010000     -70.86690000
H      -46.76240000     -36.05230000     -72.62100000
H      -43.19900000     -35.45060000     -74.87280000
H      -41.75660000     -36.21080000     -72.75140000
C      -45.84210000     -35.26110000     -74.98340000
H      -46.59470000     -35.89440000     -75.32590000
H      -45.21040000     -35.20940000     -75.88780000
C      -45.67040000     -37.20550000     -70.33760000
H      -46.13400000     -38.17050000     -70.60880000
H      -44.96450000     -37.40920000     -69.47800000
S      -46.79490000     -33.64900000     -74.51160000
S      -47.06450000     -36.12100000     -69.79040000
C      -45.81930000     -32.72390000     -73.28360000
H      -45.16790000     -33.45950000     -72.77050000
H      -45.10230000     -31.99030000     -73.73390000
C      -46.19140000     -34.61160000     -69.24440000
H      -45.90840000     -34.71320000     -68.19350000
H      -46.89930000     -33.80020000     -69.30190000
C      -44.97360000     -34.04000000     -70.04560000
H      -44.10460000     -34.60580000     -69.77420000
H      -45.15900000     -34.13730000     -71.08420000
C      -46.80270000     -32.13030000     -72.17130000
H      -47.22610000     -33.02660000     -71.68260000
H      -47.63260000     -31.62420000     -72.70150000
C      -46.10950000     -31.18040000     -71.33020000
C      -46.31120000     -29.84770000     -71.56290000
C      -45.20000000     -31.48260000     -70.28690000
H      -47.02620000     -29.44500000     -72.26310000
C      -44.75530000     -30.30010000     -69.71330000
C      -44.62540000     -32.62160000     -69.67900000
C      -43.78400000     -32.30210000     -68.62310000
S      -45.29820000     -28.82260000     -70.46790000
S      -43.53800000     -30.52020000     -68.44120000
H      -43.03490000     -32.94080000     -68.10850000
