40
Properties=species:S:1:pos:R:3 #=T CELL(abcABC):=T 1.889726e+02=T 90.00000=T Traj:=T positionsangstrom=T Step:=T 0=T Bead:=T pbc="F F F"
C      -43.74860000     -36.61640000     -68.94170000
C      -45.04980000     -36.56910000     -69.49780000
C      -45.16780000     -36.45400000     -70.91680000
C      -44.01570000     -36.29890000     -71.73200000
C      -42.75270000     -36.26090000     -71.10920000
C      -42.62130000     -36.41970000     -69.76630000
H      -43.68140000     -36.56050000     -67.87960000
H      -46.12350000     -36.61860000     -71.44400000
H      -41.87850000     -36.28630000     -71.66200000
H      -41.63870000     -36.52410000     -69.30370000
C      -44.30320000     -36.35220000     -73.16810000
H      -45.41210000     -36.29190000     -73.31820000
H      -43.91040000     -37.23450000     -73.70120000
C      -46.33670000     -36.69670000     -68.61940000
H      -46.60050000     -37.72280000     -68.52930000
H      -46.04320000     -36.40580000     -67.58310000
S      -43.22800000     -35.05680000     -74.14400000
S      -47.71430000     -35.67140000     -69.21970000
C      -43.63850000     -33.39570000     -73.30250000
H      -43.56680000     -33.47890000     -72.21710000
H      -42.87380000     -32.75650000     -73.65070000
C      -47.06410000     -33.97410000     -69.27460000
H      -46.41300000     -33.79560000     -68.38580000
H      -47.85090000     -33.25110000     -69.26370000
C      -46.24770000     -33.55860000     -70.49350000
H      -45.25320000     -33.90350000     -70.41890000
H      -46.63950000     -34.07420000     -71.37430000
C      -45.05160000     -32.85550000     -73.62940000
H      -45.83150000     -33.53280000     -73.23180000
H      -45.14620000     -32.83950000     -74.78920000
C      -45.35110000     -31.40760000     -73.13720000
C      -45.16990000     -30.21710000     -73.84320000
C      -45.95470000     -31.21540000     -71.86350000
H      -44.77210000     -30.01870000     -74.78100000
C      -46.14120000     -29.79990000     -71.58570000
C      -46.21980000     -32.00590000     -70.66990000
C      -46.41800000     -31.15640000     -69.56960000
S      -45.64960000     -28.77980000     -72.90540000
S      -46.40450000     -29.44170000     -69.87690000
H      -46.61560000     -31.44300000     -68.56290000
