40
Properties=species:S:1:pos:R:3 #=T CELL(abcABC):=T 1.889726e+02=T 90.00000=T Traj:=T positionsangstrom=T Step:=T 0=T Bead:=T pbc="F F F"
C      -43.51070000     -36.66750000     -71.72390000
C      -44.92500000     -36.64760000     -71.58490000
C      -45.56590000     -36.09180000     -72.69650000
C      -44.91560000     -35.60920000     -73.79670000
C      -43.49990000     -35.75420000     -73.93700000
C      -42.82490000     -36.27970000     -72.85470000
H      -42.99620000     -37.09710000     -70.84730000
H      -46.60770000     -35.96160000     -72.67770000
H      -43.01240000     -35.31220000     -74.84470000
H      -41.77320000     -36.35110000     -72.76620000
C      -45.69270000     -35.05570000     -74.96570000
H      -46.45610000     -35.78220000     -75.25420000
H      -44.99830000     -34.74240000     -75.80400000
C      -45.47060000     -37.06600000     -70.26950000
H      -45.62010000     -38.12990000     -70.29030000
H      -44.66160000     -37.07460000     -69.50730000
S      -46.85600000     -33.58780000     -74.68060000
S      -47.00260000     -36.15830000     -69.92410000
C      -46.02570000     -32.47530000     -73.38970000
H      -45.11530000     -33.01030000     -73.16830000
H      -45.86060000     -31.59730000     -73.94250000
C      -46.50490000     -34.59690000     -68.99670000
H      -46.36270000     -34.75840000     -67.95170000
H      -47.42780000     -33.89440000     -69.15140000
C      -45.32570000     -34.08880000     -69.75680000
H      -44.41280000     -34.74570000     -69.51340000
H      -45.49680000     -34.21440000     -70.82430000
C      -46.90450000     -32.23500000     -72.13720000
H      -47.16810000     -33.13970000     -71.61480000
H      -47.88040000     -31.82200000     -72.35480000
C      -46.14260000     -31.17970000     -71.28380000
C      -46.21540000     -29.83770000     -71.52800000
C      -45.21640000     -31.46930000     -70.19270000
H      -46.87390000     -29.25450000     -72.10950000
C      -44.62930000     -30.29080000     -69.73350000
C      -44.83150000     -32.71230000     -69.50600000
C      -43.87570000     -32.43640000     -68.57340000
S      -45.22200000     -28.88920000     -70.51960000
S      -43.42510000     -30.68610000     -68.51900000
H      -43.30490000     -33.08520000     -67.90850000
