40
Properties=species:S:1:pos:R:3 #=T CELL(abcABC):=T 1.889726e+02=T 90.00000=T Traj:=T positionsangstrom=T Step:=T 0=T Bead:=T pbc="F F F"
C      -44.07800000     -35.85490000     -68.70780000
C      -45.28830000     -36.19300000     -69.31120000
C      -45.24970000     -36.49020000     -70.70080000
C      -44.04970000     -36.35780000     -71.47470000
C      -42.80540000     -36.14120000     -70.83540000
C      -42.89450000     -35.95640000     -69.40810000
H      -44.14730000     -35.52510000     -67.72520000
H      -46.15260000     -36.84270000     -71.23050000
H      -41.84360000     -36.10180000     -71.27480000
H      -41.98460000     -35.77020000     -68.80450000
C      -44.28370000     -36.47340000     -72.93560000
H      -45.38070000     -36.40140000     -73.15210000
H      -44.09240000     -37.49410000     -73.21360000
C      -46.64480000     -36.22700000     -68.56820000
H      -46.88200000     -37.23480000     -68.32040000
H      -46.45040000     -35.64370000     -67.58250000
S      -43.22020000     -35.42490000     -73.95850000
S      -48.14340000     -35.64870000     -69.51030000
C      -43.37280000     -33.77680000     -73.29490000
H      -43.23200000     -33.73660000     -72.20290000
H      -42.57630000     -33.27010000     -73.80820000
C      -47.77800000     -33.80380000     -69.55100000
H      -47.44080000     -33.60870000     -68.49510000
H      -48.74100000     -33.34630000     -69.73530000
C      -46.88110000     -33.32710000     -70.66960000
H      -45.97870000     -33.88320000     -70.57290000
H      -47.38190000     -33.57160000     -71.62920000
C      -44.71830000     -33.13110000     -73.49640000
H      -45.50660000     -33.76490000     -73.13600000
H      -44.92660000     -33.06220000     -74.58470000
C      -44.91130000     -31.76360000     -72.95250000
C      -44.35690000     -30.68460000     -73.61010000
C      -45.66620000     -31.27590000     -71.78880000
H      -43.59270000     -30.76170000     -74.40280000
C      -45.68000000     -29.87430000     -71.69730000
C      -46.49810000     -31.86060000     -70.72570000
C      -46.99330000     -30.91700000     -69.88330000
S      -44.62670000     -29.11300000     -72.91610000
S      -46.55430000     -29.24400000     -70.36180000
H      -47.61690000     -31.07150000     -69.10160000
