40
Properties=species:S:1:pos:R:3 #=T CELL(abcABC):=T 1.889726e+02=T 90.00000=T Traj:=T positionsangstrom=T Step:=T 0=T Bead:=T pbc="F F F"
C      -44.07600000     -35.88350000     -68.47560000
C      -45.26410000     -36.17650000     -69.13510000
C      -45.23720000     -36.31350000     -70.54720000
C      -44.07290000     -36.58100000     -71.22750000
C      -42.87190000     -36.52370000     -70.44540000
C      -42.83930000     -36.10080000     -69.12770000
H      -44.08680000     -35.67610000     -67.44090000
H      -46.16570000     -36.38510000     -71.10150000
H      -41.90890000     -36.76120000     -70.89340000
H      -41.96280000     -35.76120000     -68.57660000
C      -44.00300000     -36.76350000     -72.66580000
H      -44.95300000     -37.00670000     -73.17410000
H      -43.45650000     -37.66440000     -72.93770000
C      -46.58010000     -35.98880000     -68.40890000
H      -46.92210000     -36.88700000     -67.99560000
H      -46.53780000     -35.25000000     -67.57680000
S      -43.06450000     -35.44520000     -73.56010000
S      -48.03950000     -35.47760000     -69.42510000
C      -43.74300000     -33.95830000     -72.83260000
H      -44.24020000     -34.23420000     -71.86800000
H      -43.01480000     -33.28660000     -72.48030000
C      -47.66290000     -33.66640000     -69.56850000
H      -46.93950000     -33.37510000     -68.83480000
H      -48.53870000     -33.14540000     -69.31290000
C      -47.15430000     -33.37550000     -71.03150000
H      -46.27220000     -34.01130000     -71.24490000
H      -47.91070000     -33.53420000     -71.84400000
C      -44.86410000     -33.18490000     -73.71790000
H      -45.80410000     -33.76280000     -73.81110000
H      -44.46570000     -33.25710000     -74.76960000
C      -45.08120000     -31.68850000     -73.31100000
C      -44.37120000     -30.67000000     -73.88370000
C      -45.85720000     -31.18770000     -72.12820000
H      -43.68720000     -30.77820000     -74.69950000
C      -45.68060000     -29.82170000     -72.01490000
C      -46.76530000     -31.78990000     -71.12280000
C      -47.10600000     -30.84680000     -70.23370000
S      -44.49340000     -29.11000000     -73.05870000
S      -46.52210000     -29.22220000     -70.63720000
H      -47.71010000     -30.99040000     -69.31560000
