40
Properties=species:S:1:pos:R:3 #=T CELL(abcABC):=T 1.889726e+02=T 90.00000=T Traj:=T positionsangstrom=T Step:=T 0=T Bead:=T pbc="F F F"
C      -44.13820000     -36.20200000     -68.90510000
C      -45.35260000     -36.33350000     -69.59760000
C      -45.33580000     -36.36940000     -71.02350000
C      -44.11770000     -36.34930000     -71.76480000
C      -42.87360000     -36.20840000     -71.02420000
C      -42.93440000     -36.09790000     -69.64200000
H      -44.18620000     -36.26260000     -67.82540000
H      -46.23750000     -36.48650000     -71.63030000
H      -41.86810000     -36.33440000     -71.66110000
H      -41.99650000     -35.88360000     -69.09930000
C      -44.15040000     -36.35930000     -73.24620000
H      -45.15600000     -36.11050000     -73.46710000
H      -43.98820000     -37.36840000     -73.71750000
C      -46.65400000     -36.55240000     -68.79270000
H      -46.86860000     -37.69010000     -68.76320000
H      -46.41400000     -36.30770000     -67.81120000
S      -42.97310000     -35.19390000     -74.22510000
S      -48.11880000     -35.58780000     -69.36190000
C      -43.27180000     -33.58980000     -73.43540000
H      -42.81650000     -33.58890000     -72.47680000
H      -42.61660000     -32.92600000     -73.99670000
C      -47.64050000     -33.78950000     -69.13050000
H      -47.26990000     -33.65660000     -68.10090000
H      -48.64620000     -33.23940000     -69.21300000
C      -46.64190000     -33.35890000     -70.21130000
H      -45.69700000     -33.85540000     -69.97140000
H      -46.91660000     -33.78910000     -71.16250000
C      -44.77300000     -33.16910000     -73.40260000
H      -45.25500000     -33.86350000     -72.66600000
H      -45.18520000     -33.38820000     -74.42150000
C      -45.01000000     -31.76040000     -72.88910000
C      -44.57160000     -30.63150000     -73.60930000
C      -45.70510000     -31.30640000     -71.63010000
H      -44.22370000     -30.70860000     -74.57340000
C      -45.65570000     -29.90740000     -71.50130000
C      -46.38960000     -31.85060000     -70.46950000
C      -46.89390000     -30.86930000     -69.63520000
S      -44.90790000     -29.12860000     -72.85610000
S      -46.59700000     -29.25390000     -70.18340000
H      -47.40150000     -30.99750000     -68.67320000
