40
Properties=species:S:1:pos:R:3 #=T CELL(abcABC):=T 1.889726e+02=T 90.00000=T Traj:=T positionsangstrom=T Step:=T 0=T Bead:=T pbc="F F F"
C      -44.47190000     -35.93210000     -68.15830000
C      -45.57240000     -36.07700000     -68.98180000
C      -45.47640000     -36.19300000     -70.39500000
C      -44.19650000     -36.43830000     -70.87770000
C      -43.07460000     -36.45420000     -70.00830000
C      -43.15620000     -35.99870000     -68.67570000
H      -44.58300000     -35.79520000     -67.14430000
H      -46.37120000     -36.09260000     -70.97570000
H      -42.02230000     -36.61100000     -70.30240000
H      -42.24570000     -35.90290000     -68.05250000
C      -44.00090000     -36.58240000     -72.33770000
H      -44.95870000     -36.21860000     -72.84540000
H      -43.80190000     -37.66670000     -72.66620000
C      -46.91780000     -36.15290000     -68.29640000
H      -47.35480000     -37.16890000     -68.20790000
H      -46.82660000     -35.65870000     -67.31380000
S      -42.57310000     -35.58160000     -73.06950000
S      -48.04580000     -35.07230000     -69.28090000
C      -43.17670000     -33.85580000     -72.56160000
H      -43.33850000     -33.84350000     -71.46630000
H      -42.32710000     -33.20380000     -72.77210000
C      -47.54670000     -33.38130000     -69.48400000
H      -47.16490000     -32.99890000     -68.49670000
H      -48.57780000     -32.81250000     -69.57720000
C      -46.53370000     -33.16310000     -70.61580000
H      -45.56010000     -33.70580000     -70.36630000
H      -46.81980000     -33.71230000     -71.54520000
C      -44.50440000     -33.44870000     -73.32750000
H      -45.42660000     -33.90190000     -72.83010000
H      -44.47990000     -33.82690000     -74.36000000
C      -44.76650000     -31.96320000     -73.30910000
C      -44.42640000     -31.11030000     -74.33270000
C      -45.61580000     -31.28780000     -72.26980000
H      -43.99370000     -31.32550000     -75.23160000
C      -45.82560000     -29.96070000     -72.54810000
C      -46.36300000     -31.77620000     -71.05960000
C      -47.04440000     -30.75080000     -70.46780000
S      -44.95470000     -29.40910000     -74.00920000
S      -46.78690000     -29.20610000     -71.26420000
H      -47.73120000     -30.80670000     -69.60790000
