40
Properties=species:S:1:pos:R:3 #=T CELL(abcABC):=T 1.889726e+02=T 90.00000=T Traj:=T positionsangstrom=T Step:=T 0=T Bead:=T pbc="F F F"
C      -42.57380000     -30.24510000     -72.31340000
C      -43.54470000     -30.34980000     -71.29940000
C      -44.88690000     -30.17060000     -71.60080000
C      -45.25500000     -30.25620000     -72.96260000
C      -44.29260000     -30.25880000     -73.99070000
C      -42.89290000     -30.16500000     -73.66980000
H      -41.49270000     -30.19830000     -72.02870000
H      -45.58910000     -30.10080000     -70.77020000
H      -44.67400000     -30.37520000     -75.04510000
H      -42.01510000     -30.04660000     -74.38920000
C      -46.73140000     -30.39300000     -73.42770000
H      -47.08910000     -29.50930000     -73.99740000
H      -47.41210000     -30.41130000     -72.56150000
C      -43.08470000     -30.36090000     -69.84300000
H      -42.31130000     -29.63060000     -69.65060000
H      -43.88050000     -30.10950000     -69.11750000
S      -47.01120000     -31.88240000     -74.46310000
S      -42.40210000     -31.90110000     -69.22160000
C      -47.60020000     -33.15520000     -73.28880000
H      -48.49990000     -32.90010000     -72.76810000
H      -48.00770000     -33.92130000     -73.97360000
C      -43.86610000     -33.12340000     -69.08420000
H      -44.80870000     -32.52670000     -68.96220000
H      -43.64800000     -33.71260000     -68.21170000
C      -43.91870000     -33.98860000     -70.29770000
H      -44.25630000     -33.36600000     -71.11090000
H      -42.85890000     -34.24250000     -70.50160000
C      -46.53780000     -33.52580000     -72.24320000
H      -46.49210000     -32.67890000     -71.59860000
H      -45.65560000     -33.58600000     -72.82220000
C      -46.78440000     -34.82680000     -71.56940000
C      -48.00670000     -35.52700000     -71.75620000
C      -46.04130000     -35.51010000     -70.60700000
H      -48.93710000     -35.16730000     -72.18220000
C      -46.46150000     -36.75510000     -70.12480000
C      -44.73230000     -35.20810000     -70.07440000
C      -44.25660000     -36.16740000     -69.20610000
S      -48.09270000     -37.06870000     -70.83250000
S      -45.39290000     -37.45190000     -69.02580000
H      -43.15900000     -36.08320000     -68.87930000
