40
Properties=species:S:1:pos:R:3 #=T CELL(abcABC):=T 1.889726e+02=T 90.00000=T Traj:=T positionsangstrom=T Step:=T 0=T Bead:=T pbc="F F F"
C      -44.16730000     -36.22960000     -68.25780000
C      -45.31680000     -36.08100000     -69.09390000
C      -45.22370000     -36.28510000     -70.46480000
C      -43.95670000     -36.51340000     -71.01750000
C      -42.80180000     -36.55360000     -70.21630000
C      -42.90670000     -36.52080000     -68.78550000
H      -44.32890000     -36.12100000     -67.16360000
H      -46.07790000     -36.27020000     -71.17320000
H      -41.92470000     -36.86000000     -70.67960000
H      -42.04900000     -36.69870000     -68.12650000
C      -43.97730000     -36.77440000     -72.50380000
H      -45.05600000     -36.81840000     -72.83870000
H      -43.49450000     -37.76830000     -72.67520000
C      -46.62740000     -35.99780000     -68.46820000
H      -47.03520000     -36.97760000     -68.10540000
H      -46.50300000     -35.25110000     -67.69580000
S      -43.09560000     -35.47680000     -73.51620000
S      -48.11500000     -35.33170000     -69.40550000
C      -43.55950000     -33.90560000     -72.76270000
H      -43.74270000     -33.97790000     -71.72150000
H      -42.73720000     -33.21110000     -73.00700000
C      -47.58330000     -33.57930000     -69.53010000
H      -46.88050000     -33.57990000     -68.75780000
H      -48.44380000     -32.90900000     -69.31640000
C      -47.03670000     -33.18800000     -70.94390000
H      -46.13720000     -33.77150000     -71.02260000
H      -47.76030000     -33.45400000     -71.69420000
C      -44.76300000     -33.29360000     -73.48460000
H      -45.64440000     -33.97420000     -73.25770000
H      -44.50980000     -33.29680000     -74.59370000
C      -44.96810000     -31.79290000     -73.18760000
C      -44.33820000     -30.82540000     -73.98660000
C      -45.78250000     -31.24650000     -72.18250000
H      -43.74220000     -31.17060000     -74.86520000
C      -45.67890000     -29.82020000     -72.16270000
C      -46.61480000     -31.67770000     -71.09250000
C      -47.17970000     -30.65400000     -70.33780000
S      -44.57640000     -29.20370000     -73.36050000
S      -46.63320000     -29.05330000     -70.97450000
H      -47.85120000     -30.70490000     -69.54880000
