40
Properties=species:S:1:pos:R:3 #=T CELL(abcABC):=T 1.889726e+02=T 90.00000=T Traj:=T positionsangstrom=T Step:=T 0=T Bead:=T pbc="F F F"
C      -44.42420000     -35.77550000     -67.83300000
C      -45.51070000     -36.00830000     -68.65340000
C      -45.23840000     -36.29620000     -70.01850000
C      -43.90800000     -36.34620000     -70.47290000
C      -42.87940000     -35.92480000     -69.66640000
C      -43.15320000     -35.59870000     -68.33140000
H      -44.67950000     -35.46950000     -66.85510000
H      -46.13870000     -36.42250000     -70.63400000
H      -41.87120000     -35.97790000     -69.99910000
H      -42.32710000     -35.26360000     -67.64130000
C      -43.72530000     -36.77990000     -71.95250000
H      -44.69560000     -36.78770000     -72.32610000
H      -43.20330000     -37.81660000     -72.01160000
C      -46.92820000     -35.88950000     -68.11130000
H      -47.30990000     -36.88440000     -68.07820000
H      -46.98540000     -35.35620000     -67.12830000
S      -42.76980000     -35.60820000     -72.93350000
S      -48.09330000     -35.08030000     -69.22150000
C      -43.37620000     -33.85050000     -72.70920000
H      -43.60400000     -33.75570000     -71.64800000
H      -42.61180000     -33.11200000     -72.99980000
C      -47.63140000     -33.34600000     -69.52080000
H      -47.39470000     -32.94330000     -68.59790000
H      -48.54170000     -32.97330000     -70.00800000
C      -46.40100000     -33.14240000     -70.51500000
H      -45.49460000     -33.30760000     -69.98520000
H      -46.42970000     -33.82120000     -71.35970000
C      -44.70500000     -33.59080000     -73.55250000
H      -45.43100000     -34.23800000     -73.05990000
H      -44.63710000     -33.86040000     -74.52790000
C      -44.99770000     -32.17020000     -73.54240000
C      -44.66880000     -31.35760000     -74.61510000
C      -45.67720000     -31.42310000     -72.52660000
H      -44.14030000     -31.55630000     -75.53460000
C      -45.82470000     -30.04040000     -72.85420000
C      -46.28790000     -31.73340000     -71.18130000
C      -46.75330000     -30.60250000     -70.55520000
S      -45.20130000     -29.70310000     -74.39210000
S      -46.54150000     -29.15720000     -71.54400000
H      -47.18640000     -30.56000000     -69.55170000
