40
Properties=species:S:1:pos:R:3 #=T CELL(abcABC):=T 1.889726e+02=T 90.00000=T Traj:=T positionsangstrom=T Step:=T 0=T Bead:=T pbc="F F F"
C      -44.36360000     -34.35850000     -67.83610000
C      -45.53420000     -35.03060000     -68.31840000
C      -45.38510000     -35.76860000     -69.52280000
C      -44.13850000     -35.79080000     -70.16550000
C      -42.94260000     -35.23270000     -69.63630000
C      -43.13010000     -34.44350000     -68.47640000
H      -44.44920000     -33.74370000     -66.95800000
H      -46.23630000     -36.29490000     -69.97370000
H      -41.96670000     -35.33060000     -70.12580000
H      -42.25900000     -33.92880000     -68.06410000
C      -44.01540000     -36.62270000     -71.44400000
H      -44.96700000     -36.34810000     -72.00400000
H      -43.92340000     -37.60060000     -71.10490000
C      -46.87060000     -34.95160000     -67.54680000
H      -47.21240000     -35.81000000     -67.05220000
H      -46.84080000     -34.10810000     -66.83480000
S      -42.51040000     -36.15490000     -72.53510000
S      -48.25350000     -34.75110000     -68.76670000
C      -43.06480000     -34.48880000     -73.07050000
H      -42.58930000     -33.66610000     -72.48770000
H      -42.60790000     -34.43130000     -74.04480000
C      -47.89240000     -33.01690000     -69.55200000
H      -47.68360000     -32.31420000     -68.71080000
H      -48.83210000     -32.78610000     -70.07490000
C      -46.75910000     -33.08120000     -70.49770000
H      -45.83660000     -33.23020000     -69.95450000
H      -46.95900000     -33.88160000     -71.19750000
C      -44.59150000     -34.14360000     -73.11430000
H      -44.97900000     -34.27890000     -72.09460000
H      -45.10300000     -34.77400000     -73.85590000
C      -44.88480000     -32.72950000     -73.40760000
C      -44.24050000     -32.12650000     -74.49950000
C      -45.73510000     -31.85450000     -72.63420000
H      -43.37100000     -32.51170000     -75.10900000
C      -45.84380000     -30.61870000     -73.33270000
C      -46.55210000     -31.88880000     -71.38890000
C      -47.09480000     -30.65150000     -71.19390000
S      -44.67310000     -30.45590000     -74.75720000
S      -46.78370000     -29.48500000     -72.45670000
H      -47.82360000     -30.43030000     -70.39590000
