40
Properties=species:S:1:pos:R:3 #=T CELL(abcABC):=T 1.889726e+02=T 90.00000=T Traj:=T positionsangstrom=T Step:=T 0=T Bead:=T pbc="F F F"
C      -42.68930000     -29.95830000     -71.81280000
C      -43.89890000     -30.25580000     -71.12580000
C      -45.09460000     -30.39900000     -71.88650000
C      -45.09980000     -30.24930000     -73.29130000
C      -43.88770000     -29.93600000     -73.90750000
C      -42.72170000     -29.87780000     -73.19760000
H      -41.87850000     -29.89350000     -71.12980000
H      -46.04100000     -30.64990000     -71.41500000
H      -43.97010000     -29.82520000     -75.00560000
H      -41.83000000     -29.64950000     -73.73240000
C      -46.39970000     -30.39150000     -73.96170000
H      -46.47130000     -29.62560000     -74.74500000
H      -47.21870000     -30.36920000     -73.26070000
C      -44.01160000     -30.42640000     -69.59530000
H      -43.67790000     -29.58720000     -69.00690000
H      -44.99650000     -30.80490000     -69.40800000
S      -46.73920000     -32.09790000     -74.71430000
S      -42.92590000     -31.76120000     -68.99750000
C      -47.34690000     -33.07900000     -73.33360000
H      -48.03780000     -32.45010000     -72.77410000
H      -47.94400000     -33.91530000     -73.69570000
C      -43.95850000     -33.26030000     -69.06010000
H      -44.97900000     -32.97970000     -69.07690000
H      -43.88520000     -33.90630000     -68.14760000
C      -43.66930000     -34.12060000     -70.36720000
H      -43.91270000     -33.55880000     -71.26340000
H      -42.60410000     -34.45020000     -70.44460000
C      -46.26350000     -33.79640000     -72.57060000
H      -45.65460000     -32.91040000     -72.22030000
H      -45.53770000     -34.26860000     -73.30450000
C      -46.73530000     -34.86930000     -71.64610000
C      -47.97170000     -35.49600000     -71.65530000
C      -45.86360000     -35.51240000     -70.67700000
H      -48.84680000     -35.09530000     -72.14940000
C      -46.47110000     -36.61710000     -70.06980000
C      -44.54920000     -35.32840000     -70.16850000
C      -44.16880000     -36.27280000     -69.31110000
S      -48.12160000     -36.90200000     -70.60540000
S      -45.36210000     -37.54690000     -69.09170000
H      -43.28960000     -36.18320000     -68.73060000
