40
Properties=species:S:1:pos:R:3 #=T CELL(abcABC):=T 1.889726e+02=T 90.00000=T Traj:=T positionsangstrom=T Step:=T 0=T Bead:=T pbc="F F F"
C      -43.02140000     -29.05760000     -72.50290000
C      -43.74240000     -29.76650000     -71.50240000
C      -44.92240000     -30.44100000     -71.94270000
C      -45.34410000     -30.39180000     -73.27640000
C      -44.66460000     -29.60850000     -74.20940000
C      -43.47070000     -28.99210000     -73.81210000
H      -42.15450000     -28.49130000     -72.20630000
H      -45.41140000     -31.05900000     -71.24760000
H      -44.91260000     -29.48420000     -75.27600000
H      -42.87400000     -28.54370000     -74.53680000
C      -46.70490000     -31.00700000     -73.51080000
H      -47.30760000     -30.23460000     -73.91360000
H      -47.33470000     -31.39010000     -72.67050000
C      -43.12790000     -29.96400000     -70.11840000
H      -42.23620000     -29.41480000     -70.06310000
H      -43.82480000     -29.59440000     -69.33970000
S      -46.58280000     -32.38470000     -74.78270000
S      -42.55540000     -31.70250000     -69.82540000
C      -46.98220000     -33.78500000     -73.60680000
H      -47.85570000     -33.39880000     -73.09270000
H      -47.29440000     -34.61520000     -74.23460000
C      -43.94000000     -32.70150000     -69.25190000
H      -44.91240000     -32.30130000     -69.48280000
H      -43.84170000     -32.79060000     -68.13770000
C      -43.77220000     -34.13460000     -69.74930000
H      -43.69580000     -34.15580000     -70.81840000
H      -42.78350000     -34.45000000     -69.37950000
C      -45.85290000     -34.17670000     -72.56760000
H      -45.69220000     -33.29060000     -72.00850000
H      -44.92880000     -34.45850000     -73.16180000
C      -46.33030000     -35.38460000     -71.64430000
C      -47.33140000     -36.22980000     -72.05590000
C      -45.88780000     -35.71500000     -70.26530000
H      -47.94260000     -36.05730000     -72.91130000
C      -46.65830000     -36.74350000     -69.69550000
C      -44.81710000     -35.17920000     -69.39720000
C      -44.81650000     -35.86650000     -68.21710000
S      -47.80170000     -37.34530000     -70.85040000
S      -46.04200000     -37.15600000     -68.05580000
H      -44.10440000     -35.82130000     -67.39760000
