40
Properties=species:S:1:pos:R:3 #=T CELL(abcABC):=T 1.889726e+02=T 90.00000=T Traj:=T positionsangstrom=T Step:=T 0=T Bead:=T pbc="F F F"
C      -44.41640000     -34.01390000     -67.79750000
C      -45.50290000     -34.77240000     -68.24020000
C      -45.25610000     -35.65160000     -69.31490000
C      -43.96080000     -35.75680000     -69.85120000
C      -42.86330000     -35.02970000     -69.36320000
C      -43.12060000     -34.17760000     -68.35420000
H      -44.46290000     -33.16250000     -67.08480000
H      -46.01640000     -36.26910000     -69.72550000
H      -41.84480000     -35.08430000     -69.79250000
H      -42.37060000     -33.43280000     -68.03770000
C      -43.92400000     -36.78090000     -71.00650000
H      -44.84330000     -36.95350000     -71.31000000
H      -43.65520000     -37.72850000     -70.56710000
C      -46.83620000     -34.66800000     -67.56530000
H      -46.95770000     -35.51220000     -66.92210000
H      -46.96990000     -33.74060000     -67.02740000
S      -42.76550000     -36.45120000     -72.49000000
S      -48.31990000     -34.56650000     -68.71940000
C      -43.11080000     -34.71770000     -72.98730000
H      -42.47550000     -34.05350000     -72.45150000
H      -42.76570000     -34.68110000     -74.07020000
C      -47.92970000     -32.99100000     -69.74790000
H      -47.39300000     -32.33380000     -69.07260000
H      -48.85120000     -32.46970000     -69.86160000
C      -47.04140000     -33.28780000     -70.95060000
H      -46.15820000     -33.89170000     -70.72800000
H      -47.57560000     -34.03540000     -71.58300000
C      -44.59660000     -34.22670000     -73.10110000
H      -45.20290000     -34.41340000     -72.15680000
H      -45.08140000     -34.93740000     -73.82700000
C      -44.77430000     -32.80700000     -73.48130000
C      -44.07820000     -32.10620000     -74.47000000
C      -45.71950000     -31.90440000     -72.82450000
H      -43.44760000     -32.57510000     -75.13180000
C      -45.65310000     -30.62960000     -73.34850000
C      -46.60210000     -32.03760000     -71.70500000
C      -47.25100000     -30.81890000     -71.43910000
S      -44.56560000     -30.44500000     -74.74340000
S      -46.71410000     -29.53350000     -72.60110000
H      -47.76380000     -30.46710000     -70.54220000
