40
Properties=species:S:1:pos:R:3 #=T CELL(abcABC):=T 1.889726e+02=T 90.00000=T Traj:=T positionsangstrom=T Step:=T 0=T Bead:=T pbc="F F F"
C      -42.91800000     -29.29380000     -72.58470000
C      -43.68250000     -29.82830000     -71.56280000
C      -44.93300000     -30.45820000     -71.95790000
C      -45.40870000     -30.36160000     -73.25500000
C      -44.65470000     -29.69700000     -74.26840000
C      -43.43900000     -29.19540000     -73.89520000
H      -41.94250000     -28.89470000     -72.36600000
H      -45.47720000     -30.81980000     -71.20530000
H      -44.95180000     -29.45240000     -75.26280000
H      -42.77950000     -28.72380000     -74.66220000
C      -46.75360000     -30.96580000     -73.60930000
H      -47.32860000     -30.19910000     -74.19400000
H      -47.38710000     -31.19260000     -72.69710000
C      -43.29360000     -30.01560000     -70.14210000
H      -42.62090000     -29.24580000     -69.71720000
H      -44.20070000     -29.96350000     -69.46590000
S      -46.57120000     -32.47300000     -74.63750000
S      -42.42750000     -31.66560000     -69.84630000
C      -46.88820000     -33.93910000     -73.62480000
H      -47.91270000     -33.97420000     -73.34200000
H      -46.74560000     -34.77060000     -74.33840000
C      -43.88000000     -32.69990000     -69.22750000
H      -44.87480000     -32.21230000     -69.52270000
H      -43.79170000     -32.75610000     -68.12590000
C      -43.76310000     -34.10640000     -69.81400000
H      -43.78520000     -33.99820000     -70.92650000
H      -42.82810000     -34.52090000     -69.42770000
C      -45.93980000     -34.18190000     -72.50390000
H      -45.78800000     -33.30210000     -71.84700000
H      -44.93070000     -34.37840000     -73.01290000
C      -46.45500000     -35.33790000     -71.60630000
C      -47.41320000     -36.25780000     -72.01320000
C      -45.88540000     -35.54510000     -70.31070000
H      -47.85890000     -36.38710000     -73.00250000
C      -46.63730000     -36.61290000     -69.73500000
C      -44.90110000     -35.00360000     -69.43960000
C      -44.90860000     -35.66980000     -68.25460000
S      -47.75510000     -37.40880000     -70.75090000
S      -46.08210000     -37.00760000     -68.07780000
H      -44.16450000     -35.52420000     -67.46910000
