40
Properties=species:S:1:pos:R:3 #=T CELL(abcABC):=T 1.889726e+02=T 90.00000=T Traj:=T positionsangstrom=T Step:=T 0=T Bead:=T pbc="F F F"
C      -44.32720000     -34.26100000     -67.79730000
C      -45.50350000     -34.98230000     -68.24450000
C      -45.35650000     -35.79190000     -69.35120000
C      -44.09380000     -35.85740000     -70.04080000
C      -42.96380000     -35.10930000     -69.63430000
C      -43.12470000     -34.32600000     -68.50240000
H      -44.25550000     -33.66510000     -66.90200000
H      -46.18590000     -36.36050000     -69.82960000
H      -41.98160000     -35.14880000     -70.12030000
H      -42.21430000     -33.85210000     -68.06940000
C      -43.90310000     -36.72920000     -71.21790000
H      -44.78630000     -37.00060000     -71.81870000
H      -43.53040000     -37.73460000     -70.83370000
C      -46.85260000     -34.74120000     -67.54410000
H      -47.17450000     -35.65720000     -66.92430000
H      -46.67590000     -33.95770000     -66.80190000
S      -42.61280000     -36.31150000     -72.47900000
S      -48.29020000     -34.46400000     -68.70170000
C      -42.94440000     -34.47840000     -73.15590000
H      -42.40820000     -33.78560000     -72.44900000
H      -42.55670000     -34.45350000     -74.17770000
C      -47.92990000     -33.16980000     -69.85000000
H      -47.87770000     -32.22460000     -69.28200000
H      -48.77630000     -33.13440000     -70.55680000
C      -46.80780000     -33.26890000     -70.83620000
H      -45.86800000     -33.50840000     -70.25680000
H      -46.94030000     -34.04650000     -71.55370000
C      -44.45380000     -34.19580000     -73.03450000
H      -44.72780000     -34.28770000     -71.96060000
H      -45.07470000     -34.92870000     -73.48390000
C      -44.82520000     -32.77920000     -73.42170000
C      -44.29620000     -32.15140000     -74.56120000
C      -45.72880000     -31.85300000     -72.72240000
H      -43.72300000     -32.57360000     -75.36750000
C      -45.67560000     -30.54430000     -73.22870000
C      -46.61020000     -31.98440000     -71.61160000
C      -47.30750000     -30.80210000     -71.39940000
S      -44.76550000     -30.42760000     -74.70090000
S      -46.70310000     -29.51150000     -72.40970000
H      -48.06210000     -30.65790000     -70.63910000
