40
Properties=species:S:1:pos:R:3 #=T CELL(abcABC):=T 1.889726e+02=T 90.00000=T Traj:=T positionsangstrom=T Step:=T 0=T Bead:=T pbc="F F F"
C      -43.01090000     -29.09190000     -72.40580000
C      -43.77130000     -29.87280000     -71.46230000
C      -44.89620000     -30.56920000     -71.94380000
C      -45.39600000     -30.30840000     -73.22710000
C      -44.73900000     -29.37780000     -74.02790000
C      -43.52250000     -28.85160000     -73.69550000
H      -41.99180000     -28.66480000     -72.14230000
H      -45.52980000     -31.23690000     -71.28680000
H      -45.17500000     -29.21340000     -74.98690000
H      -43.13600000     -28.06980000     -74.24950000
C      -46.67710000     -30.86310000     -73.72430000
H      -47.22550000     -30.11500000     -74.25680000
H      -47.21690000     -31.19280000     -72.85420000
C      -43.24920000     -30.02920000     -70.01910000
H      -42.48080000     -29.25430000     -69.73540000
H      -44.06470000     -29.95900000     -69.27850000
S      -46.52410000     -32.41870000     -74.66150000
S      -42.53760000     -31.76140000     -69.78150000
C      -47.04480000     -33.83310000     -73.54280000
H      -48.00790000     -33.62370000     -72.98170000
H      -47.12380000     -34.67270000     -74.22640000
C      -44.04360000     -32.78400000     -69.35140000
H      -44.86370000     -32.33180000     -69.84330000
H      -44.27550000     -32.69770000     -68.26980000
C      -43.69100000     -34.15840000     -69.86400000
H      -43.56010000     -34.08420000     -70.92750000
H      -42.68190000     -34.52340000     -69.50250000
C      -45.98820000     -34.16510000     -72.47360000
H      -45.73430000     -33.34290000     -71.80350000
H      -45.01340000     -34.34390000     -72.88240000
C      -46.37830000     -35.36890000     -71.71210000
C      -47.52490000     -36.08440000     -71.99840000
C      -45.81650000     -35.70200000     -70.40960000
H      -48.09710000     -36.02530000     -72.87450000
C      -46.44640000     -36.71410000     -69.82820000
C      -44.75310000     -35.18160000     -69.56910000
C      -44.74520000     -35.85540000     -68.36650000
S      -47.80620000     -37.36910000     -70.75010000
S      -45.95790000     -37.18730000     -68.21960000
H      -44.22870000     -35.47070000     -67.48190000
