40
Properties=species:S:1:pos:R:3 #=T CELL(abcABC):=T 1.889726e+02=T 90.00000=T Traj:=T positionsangstrom=T Step:=T 0=T Bead:=T pbc="F F F"
C      -42.76040000     -30.85250000     -72.31220000
C      -43.97890000     -30.36840000     -71.76010000
C      -45.11420000     -30.46740000     -72.60880000
C      -45.01350000     -30.95630000     -73.91840000
C      -43.78950000     -31.39780000     -74.42010000
C      -42.69330000     -31.24590000     -73.64490000
H      -41.82960000     -30.66040000     -71.72700000
H      -46.09850000     -30.06550000     -72.23830000
H      -43.77280000     -31.87030000     -75.36840000
H      -41.78080000     -31.61040000     -74.12200000
C      -46.22730000     -31.15730000     -74.78560000
H      -46.21210000     -30.51970000     -75.71370000
H      -46.96580000     -30.72460000     -74.10370000
C      -44.09570000     -29.89180000     -70.31870000
H      -43.74380000     -28.83830000     -70.28510000
H      -45.04570000     -29.89710000     -69.96570000
S      -46.56470000     -32.92910000     -75.06160000
S      -42.93520000     -30.83000000     -69.20480000
C      -47.16790000     -33.80850000     -73.56210000
H      -48.14300000     -33.43620000     -73.33260000
H      -47.25850000     -34.75730000     -74.07830000
C      -44.01160000     -32.38290000     -68.99990000
H      -45.03840000     -31.91370000     -68.79880000
H      -43.66900000     -32.76830000     -68.03460000
C      -43.96390000     -33.39910000     -70.08560000
H      -44.43500000     -32.91630000     -70.92120000
H      -42.92740000     -33.59210000     -70.28280000
C      -46.22720000     -33.81080000     -72.39670000
H      -46.18820000     -32.78640000     -71.99730000
H      -45.24180000     -34.19940000     -72.69940000
C      -46.82290000     -34.83270000     -71.33440000
C      -47.91280000     -35.62850000     -71.49290000
C      -45.99600000     -35.18780000     -70.17260000
H      -48.64190000     -35.76030000     -72.22720000
C      -46.47320000     -36.29600000     -69.51600000
C      -44.71890000     -34.72680000     -69.62840000
C      -44.32790000     -35.50180000     -68.54140000
S      -47.94700000     -36.92970000     -70.19010000
S      -45.52750000     -36.79780000     -68.11960000
H      -43.45060000     -35.31700000     -67.93080000
