40
Properties=species:S:1:pos:R:3 #=T CELL(abcABC):=T 1.889726e+02=T 90.00000=T Traj:=T positionsangstrom=T Step:=T 0=T Bead:=T pbc="F F F"
C      -42.86710000     -29.85110000     -72.68280000
C      -43.70970000     -30.17810000     -71.64250000
C      -45.00760000     -30.58660000     -71.94390000
C      -45.44910000     -30.53970000     -73.28980000
C      -44.56780000     -30.14830000     -74.30570000
C      -43.29590000     -29.72180000     -73.96350000
H      -41.83780000     -29.57750000     -72.40820000
H      -45.63010000     -30.86960000     -71.11530000
H      -44.79530000     -30.00110000     -75.33000000
H      -42.57440000     -29.49130000     -74.79550000
C      -46.82970000     -31.13800000     -73.47390000
H      -47.45870000     -30.34070000     -73.94170000
H      -47.24590000     -31.58210000     -72.60910000
C      -43.22460000     -30.08520000     -70.20130000
H      -42.50710000     -29.27720000     -70.08050000
H      -44.02690000     -29.83790000     -69.49140000
S      -46.54620000     -32.48600000     -74.78060000
S      -42.35660000     -31.59770000     -69.53270000
C      -46.87110000     -34.02180000     -73.90340000
H      -47.96210000     -33.91230000     -73.60560000
H      -46.87010000     -34.89500000     -74.58600000
C      -43.84990000     -32.60160000     -69.23670000
H      -44.75530000     -32.03530000     -69.44020000
H      -43.86510000     -32.84070000     -68.13520000
C      -43.74480000     -33.94630000     -70.05310000
H      -43.78270000     -33.76030000     -71.15470000
H      -42.80380000     -34.40060000     -69.78210000
C      -46.02520000     -34.14680000     -72.62930000
H      -46.09100000     -33.12660000     -72.09560000
H      -45.01970000     -34.21410000     -72.89590000
C      -46.55850000     -35.24540000     -71.69640000
C      -47.69470000     -36.03650000     -71.90360000
C      -45.93120000     -35.50180000     -70.37290000
H      -48.33230000     -36.14550000     -72.77670000
C      -46.64630000     -36.46110000     -69.67120000
C      -44.76700000     -34.96900000     -69.57240000
C      -44.76260000     -35.40790000     -68.28430000
S      -47.91080000     -37.23300000     -70.56700000
S      -45.98750000     -36.68030000     -68.01400000
H      -44.34300000     -34.87560000     -67.47730000
