40
Properties=species:S:1:pos:R:3 #=T CELL(abcABC):=T 1.889726e+02=T 90.00000=T Traj:=T positionsangstrom=T Step:=T 0=T Bead:=T pbc="F F F"
C      -43.44750000     -36.67450000     -71.78550000
C      -44.83230000     -36.74050000     -71.66820000
C      -45.61170000     -36.43210000     -72.79910000
C      -45.04170000     -35.84520000     -73.98160000
C      -43.66380000     -35.49240000     -73.93290000
C      -42.85140000     -36.01910000     -72.92680000
H      -42.73500000     -37.00830000     -71.01280000
H      -46.68240000     -36.60690000     -72.68780000
H      -43.17940000     -35.07840000     -74.87150000
H      -41.77500000     -35.75910000     -72.88740000
C      -45.96790000     -35.16900000     -75.02150000
H      -46.69670000     -35.93180000     -75.43550000
H      -45.44780000     -34.71510000     -75.93790000
C      -45.60370000     -37.15480000     -70.43500000
H      -45.81040000     -38.23960000     -70.49350000
H      -44.97720000     -37.08380000     -69.55380000
S      -47.13080000     -33.87130000     -74.29150000
S      -47.04500000     -35.98630000     -70.12460000
C      -46.00390000     -32.74510000     -73.34480000
H      -45.14040000     -33.33800000     -73.01310000
H      -45.69780000     -31.95200000     -74.03210000
C      -46.04940000     -34.74700000     -69.21290000
H      -45.59200000     -35.30740000     -68.33620000
H      -46.80240000     -34.08480000     -68.75970000
C      -45.02130000     -34.02040000     -69.99150000
H      -44.16750000     -34.69070000     -70.08910000
H      -45.44090000     -33.91080000     -70.96690000
C      -46.77080000     -31.99950000     -72.18730000
H      -47.36140000     -32.72470000     -71.59050000
H      -47.51350000     -31.43550000     -72.71510000
C      -45.88180000     -31.11520000     -71.40950000
C      -46.00370000     -29.71720000     -71.66160000
C      -45.11530000     -31.48560000     -70.24450000
H      -46.75450000     -29.13800000     -72.25000000
C      -44.61230000     -30.32350000     -69.67560000
C      -44.65520000     -32.66480000     -69.53440000
C      -43.96740000     -32.34790000     -68.39450000
S      -45.13410000     -28.79690000     -70.44810000
S      -43.59020000     -30.59020000     -68.23720000
H      -43.33890000     -33.02610000     -67.87930000
