40
Properties=species:S:1:pos:R:3 #=T CELL(abcABC):=T 1.889726e+02=T 90.00000=T Traj:=T positionsangstrom=T Step:=T 0=T Bead:=T pbc="F F F"
C      -42.71340000     -30.53250000     -72.53810000
C      -43.89170000     -30.48110000     -71.80970000
C      -45.09440000     -30.69350000     -72.47670000
C      -45.25740000     -30.89810000     -73.86200000
C      -44.03880000     -30.91160000     -74.55230000
C      -42.82550000     -30.84790000     -73.91040000
H      -41.71570000     -30.37590000     -72.03350000
H      -46.05120000     -30.62600000     -71.92610000
H      -44.07120000     -31.17650000     -75.60800000
H      -41.90180000     -30.82470000     -74.56690000
C      -46.54410000     -31.14920000     -74.57870000
H      -46.58570000     -30.70420000     -75.57360000
H      -47.43760000     -30.88890000     -74.06020000
C      -43.87350000     -30.07370000     -70.31670000
H      -43.44570000     -28.98690000     -70.35580000
H      -44.84590000     -29.94800000     -69.90540000
S      -46.75060000     -32.93010000     -75.13050000
S      -42.83410000     -30.97260000     -69.16630000
C      -47.13060000     -33.84080000     -73.58100000
H      -48.11580000     -33.51470000     -73.15530000
H      -47.28580000     -34.87960000     -73.83110000
C      -43.89710000     -32.53050000     -68.78900000
H      -44.97210000     -32.26570000     -68.69090000
H      -43.61650000     -32.94950000     -67.83360000
C      -43.71720000     -33.57700000     -69.91780000
H      -44.02760000     -33.21020000     -70.87410000
H      -42.68160000     -33.86460000     -70.01840000
C      -46.09700000     -33.73930000     -72.43670000
H      -46.10590000     -32.74810000     -71.96000000
H      -45.11490000     -34.01820000     -72.79090000
C      -46.58860000     -34.79670000     -71.31250000
C      -47.77060000     -35.47890000     -71.39500000
C      -45.79260000     -35.28270000     -70.18820000
H      -48.48980000     -35.37250000     -72.19290000
C      -46.48410000     -36.31540000     -69.51000000
C      -44.60180000     -34.80420000     -69.51630000
C      -44.40350000     -35.60090000     -68.36320000
S      -47.92210000     -36.86270000     -70.37050000
S      -45.69430000     -36.84490000     -68.09810000
H      -43.59120000     -35.61210000     -67.72580000
