40
Properties=species:S:1:pos:R:3 #=T CELL(abcABC):=T 1.889726e+02=T 90.00000=T Traj:=T positionsangstrom=T Step:=T 0=T Bead:=T pbc="F F F"
C      -42.69030000     -30.79720000     -72.24980000
C      -43.92460000     -30.27170000     -71.73460000
C      -45.03670000     -30.41610000     -72.60650000
C      -44.94150000     -31.04360000     -73.84990000
C      -43.72430000     -31.55180000     -74.33120000
C      -42.59310000     -31.32850000     -73.51070000
H      -41.82850000     -30.77240000     -71.62540000
H      -46.01900000     -30.16590000     -72.25680000
H      -43.61800000     -32.04070000     -75.31790000
H      -41.62630000     -31.65300000     -73.88140000
C      -46.21420000     -31.21950000     -74.64640000
H      -46.19610000     -30.74980000     -75.66140000
H      -47.11520000     -30.77520000     -74.23750000
C      -44.04550000     -29.80180000     -70.29410000
H      -43.39030000     -28.87310000     -70.15090000
H      -45.09090000     -29.56100000     -70.01320000
S      -46.46480000     -33.02080000     -75.19250000
S      -43.13630000     -30.88450000     -69.13070000
C      -47.37130000     -33.64540000     -73.81540000
H      -48.23450000     -32.99270000     -73.51790000
H      -47.94430000     -34.56110000     -74.14790000
C      -44.05750000     -32.44270000     -68.91060000
H      -45.12770000     -32.27200000     -68.63150000
H      -43.58820000     -32.90420000     -68.08020000
C      -44.03570000     -33.37930000     -70.06530000
H      -44.32960000     -32.96610000     -71.03760000
H      -42.96940000     -33.64510000     -70.18830000
C      -46.49330000     -33.89730000     -72.52990000
H      -46.19240000     -32.86590000     -72.13260000
H      -45.53340000     -34.26600000     -72.85700000
C      -46.90750000     -34.92660000     -71.47350000
C      -47.89730000     -35.85250000     -71.46960000
C      -45.93530000     -35.17270000     -70.35770000
H      -48.67260000     -36.13230000     -72.18220000
C      -46.39090000     -36.21640000     -69.57010000
C      -44.76060000     -34.64670000     -69.71080000
C      -44.44000000     -35.28210000     -68.52610000
S      -47.88840000     -36.93870000     -70.05440000
S      -45.40190000     -36.63860000     -68.13730000
H      -43.64470000     -34.80400000     -68.03070000
