40
Properties=species:S:1:pos:R:3 #=T CELL(abcABC):=T 1.889726e+02=T 90.00000=T Traj:=T positionsangstrom=T Step:=T 0=T Bead:=T pbc="F F F"
C      -42.70110000     -30.44320000     -72.47150000
C      -43.84510000     -30.43750000     -71.73490000
C      -45.13620000     -30.56330000     -72.34810000
C      -45.27540000     -30.77930000     -73.70400000
C      -44.09030000     -30.87800000     -74.41640000
C      -42.81690000     -30.66070000     -73.85300000
H      -41.69300000     -30.37330000     -72.08290000
H      -46.01290000     -30.46110000     -71.69290000
H      -44.20710000     -31.19550000     -75.39420000
H      -41.90950000     -30.72910000     -74.47650000
C      -46.61810000     -31.05860000     -74.35700000
H      -46.88870000     -30.19520000     -74.97900000
H      -47.35300000     -31.15210000     -73.52840000
C      -43.83230000     -30.00200000     -70.24970000
H      -43.33530000     -29.03160000     -70.10350000
H      -44.83860000     -30.04720000     -69.84120000
S      -46.54180000     -32.80240000     -75.10300000
S      -42.73440000     -31.13440000     -69.26200000
C      -47.26530000     -33.81130000     -73.70490000
H      -48.13960000     -33.26410000     -73.27980000
H      -47.59040000     -34.71970000     -74.20290000
C      -43.84680000     -32.45160000     -68.87260000
H      -44.80460000     -32.06830000     -68.63960000
H      -43.42230000     -32.92080000     -67.89800000
C      -43.89850000     -33.53490000     -70.00910000
H      -44.26750000     -33.00870000     -70.92390000
H      -42.83800000     -33.90630000     -70.09390000
C      -46.17470000     -34.22230000     -72.65910000
H      -45.74740000     -33.30410000     -72.33370000
H      -45.36960000     -34.67570000     -73.24120000
C      -46.64050000     -35.12590000     -71.52250000
C      -47.68380000     -35.93940000     -71.59460000
C      -45.93710000     -35.28710000     -70.27980000
H      -48.31000000     -36.05130000     -72.43850000
C      -46.57640000     -36.17730000     -69.43030000
C      -44.73180000     -34.70230000     -69.65920000
C      -44.50610000     -35.40320000     -68.48640000
S      -47.99480000     -36.93790000     -70.17790000
S      -45.59620000     -36.75280000     -68.11650000
H      -43.77310000     -35.22130000     -67.76550000
