40
Properties=species:S:1:pos:R:3 #=T CELL(abcABC):=T 1.889726e+02=T 90.00000=T Traj:=T positionsangstrom=T Step:=T 0=T Bead:=T pbc="F F F"
C      -42.41060000     -30.98580000     -72.32780000
C      -43.67270000     -30.41310000     -71.89820000
C      -44.86870000     -30.65230000     -72.59740000
C      -44.80360000     -31.28580000     -73.84500000
C      -43.61130000     -31.89020000     -74.27730000
C      -42.39990000     -31.68650000     -73.54660000
H      -41.50790000     -30.89300000     -71.62660000
H      -45.81080000     -30.23280000     -72.28470000
H      -43.60920000     -32.43860000     -75.20060000
H      -41.48470000     -32.22330000     -73.78720000
C      -46.07600000     -31.36220000     -74.67050000
H      -46.08300000     -30.81990000     -75.64390000
H      -46.99270000     -31.06820000     -74.17090000
C      -43.71300000     -29.62270000     -70.63360000
H      -42.79230000     -28.98220000     -70.62430000
H      -44.64110000     -29.09740000     -70.54670000
S      -46.38370000     -33.10520000     -75.19510000
S      -43.56180000     -30.68070000     -69.08540000
C      -47.07540000     -33.83350000     -73.62700000
H      -48.07590000     -33.52380000     -73.43010000
H      -47.22720000     -34.87520000     -73.93300000
C      -44.71340000     -32.10100000     -69.30260000
H      -45.52480000     -31.77560000     -70.05620000
H      -45.19060000     -32.29880000     -68.34250000
C      -43.96880000     -33.37220000     -69.81890000
H      -43.74010000     -33.25780000     -70.87230000
H      -42.96460000     -33.47210000     -69.44660000
C      -46.31410000     -33.70150000     -72.29890000
H      -46.43860000     -32.64700000     -71.95840000
H      -45.29220000     -33.77170000     -72.45510000
C      -46.71300000     -34.77610000     -71.34040000
C      -47.83400000     -35.50110000     -71.44600000
C      -45.90490000     -35.16960000     -70.21360000
H      -48.51530000     -35.46120000     -72.31930000
C      -46.54050000     -36.22050000     -69.52100000
C      -44.70910000     -34.66270000     -69.53610000
C      -44.43890000     -35.43450000     -68.37140000
S      -47.98320000     -36.67560000     -70.18870000
S      -45.64650000     -36.72280000     -68.17670000
H      -43.63050000     -35.36790000     -67.61340000
