40
Properties=species:S:1:pos:R:3 #=T CELL(abcABC):=T 1.889726e+02=T 90.00000=T Traj:=T positionsangstrom=T Step:=T 0=T Bead:=T pbc="F F F"
C      -47.04630000     -31.97430000     -74.46160000
C      -47.15570000     -33.32920000     -74.18160000
C      -45.95400000     -34.03210000     -74.24950000
C      -44.74620000     -33.44790000     -74.74500000
C      -44.82220000     -32.16430000     -75.30040000
C      -46.01860000     -31.42620000     -75.16580000
H      -47.95170000     -31.31580000     -74.19090000
H      -45.95240000     -35.11230000     -73.97030000
H      -43.97600000     -31.69320000     -75.72640000
H      -46.06800000     -30.35500000     -75.49060000
C      -43.45920000     -34.15970000     -74.74490000
H      -42.96660000     -34.17510000     -75.74180000
H      -43.69430000     -35.12870000     -74.44470000
C      -48.44410000     -33.84170000     -73.59260000
H      -48.72570000     -33.11190000     -72.85740000
H      -49.25200000     -33.95360000     -74.32790000
S      -42.34610000     -33.31000000     -73.53530000
S      -48.27640000     -35.53160000     -72.72120000
C      -43.08050000     -33.40840000     -71.75690000
H      -43.67040000     -34.31410000     -71.81500000
H      -42.15640000     -33.54770000     -71.18310000
C      -47.80210000     -34.93900000     -70.95550000
H      -48.07620000     -35.71400000     -70.23960000
H      -48.31630000     -33.99550000     -70.76150000
C      -46.32380000     -34.59650000     -70.77250000
H      -45.76440000     -35.53920000     -70.89180000
H      -46.08300000     -33.87260000     -71.51610000
C      -43.92530000     -32.26530000     -71.27490000
H      -44.97630000     -32.21280000     -71.72540000
H      -43.36970000     -31.39720000     -71.52830000
C      -43.96380000     -32.37680000     -69.82390000
C      -43.11460000     -31.63390000     -68.99530000
C      -44.92480000     -33.16070000     -69.09990000
H      -42.55340000     -30.82480000     -69.32550000
C      -44.76480000     -32.92530000     -67.70510000
C      -46.09500000     -33.97350000     -69.44210000
C      -46.70530000     -34.42550000     -68.30300000
S      -43.35130000     -31.88120000     -67.28550000
S      -46.02440000     -33.83130000     -66.81390000
H      -47.54130000     -35.16440000     -68.29300000
