40
Properties=species:S:1:pos:R:3 #=T CELL(abcABC):=T 1.889726e+02=T 90.00000=T Traj:=T positionsangstrom=T Step:=T 0=T Bead:=T pbc="F F F"
C      -42.40950000     -31.14520000     -72.24710000
C      -43.53950000     -30.36130000     -71.89220000
C      -44.67590000     -30.40930000     -72.74930000
C      -44.65680000     -31.19750000     -73.90160000
C      -43.50730000     -31.96700000     -74.25180000
C      -42.45360000     -31.94780000     -73.37400000
H      -41.58690000     -31.13320000     -71.46190000
H      -45.58800000     -29.88470000     -72.45030000
H      -43.58800000     -32.70380000     -75.10810000
H      -41.50200000     -32.37950000     -73.67360000
C      -45.95830000     -31.38900000     -74.72320000
H      -45.82790000     -30.92340000     -75.69340000
H      -46.83120000     -31.00260000     -74.20160000
C      -43.50360000     -29.58110000     -70.65580000
H      -42.64370000     -28.91440000     -70.50210000
H      -44.42310000     -28.92320000     -70.60610000
S      -46.28150000     -33.16720000     -75.21290000
S      -43.56860000     -30.58220000     -69.03890000
C      -47.06370000     -33.83900000     -73.64330000
H      -48.07470000     -33.34430000     -73.50750000
H      -47.20300000     -34.88870000     -73.93710000
C      -44.72060000     -32.05150000     -69.34180000
H      -45.45500000     -31.89440000     -70.18290000
H      -45.28880000     -32.17080000     -68.46860000
C      -44.06500000     -33.38560000     -69.73740000
H      -43.91720000     -33.35190000     -70.85600000
H      -43.09410000     -33.47630000     -69.21920000
C      -46.30350000     -33.80570000     -72.34650000
H      -46.22980000     -32.78100000     -71.91490000
H      -45.24240000     -34.07880000     -72.32780000
C      -46.82080000     -34.72750000     -71.32260000
C      -47.98060000     -35.38220000     -71.50950000
C      -46.06770000     -35.05510000     -70.11600000
H      -48.70760000     -35.34590000     -72.30590000
C      -46.65730000     -36.13760000     -69.48700000
C      -44.87110000     -34.59540000     -69.43820000
C      -44.51390000     -35.46270000     -68.36650000
S      -48.09850000     -36.75100000     -70.33880000
S      -45.64370000     -36.76330000     -68.12760000
H      -43.76740000     -35.23390000     -67.60320000
