40
Properties=species:S:1:pos:R:3 #=T CELL(abcABC):=T 1.889726e+02=T 90.00000=T Traj:=T positionsangstrom=T Step:=T 0=T Bead:=T pbc="F F F"
C      -42.36580000     -31.26980000     -72.11420000
C      -43.52230000     -30.47730000     -71.86020000
C      -44.46650000     -30.56950000     -72.85740000
C      -44.42730000     -31.44970000     -73.89290000
C      -43.36180000     -32.32690000     -74.03530000
C      -42.27920000     -32.19980000     -73.14400000
H      -41.51800000     -31.20950000     -71.39050000
H      -45.40730000     -29.97570000     -72.78290000
H      -43.37610000     -33.07230000     -74.85620000
H      -41.27580000     -32.75150000     -73.22690000
C      -45.58670000     -31.54180000     -74.87980000
H      -45.20980000     -31.16000000     -75.81850000
H      -46.36880000     -30.86090000     -74.47930000
C      -43.49090000     -29.60340000     -70.63830000
H      -42.61930000     -29.04180000     -70.57980000
H      -44.29690000     -28.84830000     -70.77450000
S      -46.32160000     -33.14690000     -75.29230000
S      -43.59750000     -30.61170000     -69.10000000
C      -47.01230000     -33.81830000     -73.74040000
H      -47.97790000     -33.34030000     -73.52770000
H      -47.22880000     -34.82210000     -74.06580000
C      -44.78290000     -31.93890000     -69.50230000
H      -45.55040000     -31.56550000     -70.21600000
H      -45.34720000     -32.13720000     -68.56400000
C      -44.12580000     -33.34960000     -70.01830000
H      -44.12130000     -33.36410000     -71.12410000
H      -43.13780000     -33.40880000     -69.65840000
C      -46.23710000     -33.87580000     -72.40970000
H      -45.91470000     -32.90720000     -72.03550000
H      -45.26830000     -34.32390000     -72.68700000
C      -46.83640000     -34.76180000     -71.39420000
C      -47.90580000     -35.65760000     -71.57540000
C      -46.08090000     -35.00970000     -70.17470000
H      -48.70770000     -35.61270000     -72.25520000
C      -46.65310000     -36.04350000     -69.47860000
C      -44.94170000     -34.49100000     -69.50660000
C      -44.82100000     -35.08810000     -68.28040000
S      -48.03150000     -36.74620000     -70.22130000
S      -46.01950000     -36.34210000     -67.90640000
H      -44.00330000     -34.99050000     -67.53070000
