40
Properties=species:S:1:pos:R:3 #=T CELL(abcABC):=T 1.889726e+02=T 90.00000=T Traj:=T positionsangstrom=T Step:=T 0=T Bead:=T pbc="F F F"
C      -42.25390000     -31.61000000     -72.30620000
C      -43.35820000     -30.77600000     -72.08910000
C      -44.40300000     -30.82780000     -73.00010000
C      -44.38660000     -31.73600000     -74.06690000
C      -43.21510000     -32.53870000     -74.28760000
C      -42.21460000     -32.48260000     -73.34040000
H      -41.49810000     -31.57740000     -71.52500000
H      -45.35660000     -30.20770000     -72.97980000
H      -43.12380000     -33.25410000     -75.18720000
H      -41.28570000     -33.09410000     -73.49400000
C      -45.56330000     -31.72770000     -74.98520000
H      -45.28780000     -31.43110000     -75.94890000
H      -46.42520000     -31.07560000     -74.63720000
C      -43.27460000     -29.80380000     -70.98910000
H      -42.35150000     -29.29880000     -71.12610000
H      -44.11390000     -29.03210000     -71.13190000
S      -46.04470000     -33.46330000     -75.19820000
S      -43.31560000     -30.54560000     -69.31150000
C      -46.83230000     -34.10540000     -73.74010000
H      -47.71360000     -33.48900000     -73.48030000
H      -47.06670000     -35.13300000     -74.06970000
C      -44.72730000     -31.71410000     -69.47730000
H      -45.42440000     -31.48490000     -70.28620000
H      -45.13530000     -31.71120000     -68.48150000
C      -44.18290000     -33.13940000     -69.73350000
H      -44.02260000     -33.36620000     -70.85320000
H      -43.26260000     -33.23140000     -69.15430000
C      -45.93030000     -34.16350000     -72.53250000
H      -45.54110000     -33.17050000     -72.27970000
H      -45.08490000     -34.71370000     -72.96100000
C      -46.65510000     -34.92410000     -71.39220000
C      -47.76360000     -35.72550000     -71.63080000
C      -46.18750000     -34.88560000     -70.03970000
H      -48.45510000     -35.78580000     -72.51310000
C      -47.01360000     -35.69780000     -69.25420000
C      -45.18620000     -34.22930000     -69.20490000
C      -45.34960000     -34.53380000     -67.90970000
S      -48.23440000     -36.59550000     -70.19330000
S      -46.57330000     -35.75610000     -67.58590000
H      -44.64900000     -34.12000000     -67.13350000
