40
Properties=species:S:1:pos:R:3 #=T CELL(abcABC):=T 1.889726e+02=T 90.00000=T Traj:=T positionsangstrom=T Step:=T 0=T Bead:=T pbc="F F F"
C      -47.93520000     -32.69780000     -74.37770000
C      -47.41520000     -33.93910000     -73.94980000
C      -46.10370000     -34.21760000     -74.24470000
C      -45.22150000     -33.23570000     -74.74420000
C      -45.72600000     -31.91660000     -74.87650000
C      -47.06840000     -31.68290000     -74.79490000
H      -48.88650000     -32.42980000     -74.08780000
H      -45.68360000     -35.28520000     -74.15070000
H      -45.11040000     -31.06460000     -75.17770000
H      -47.41450000     -30.69210000     -74.99570000
C      -43.83910000     -33.67940000     -75.08440000
H      -43.58090000     -33.44780000     -76.08650000
H      -43.64560000     -34.76180000     -74.98170000
C      -48.31370000     -35.05650000     -73.52240000
H      -49.30830000     -34.76810000     -73.49110000
H      -48.34090000     -35.84260000     -74.28790000
S      -42.53810000     -32.86330000     -74.02540000
S      -47.88350000     -35.89850000     -71.96900000
C      -43.03820000     -33.50250000     -72.30860000
H      -43.58390000     -34.41710000     -72.41390000
H      -42.12890000     -33.69440000     -71.72840000
C      -48.00180000     -34.72420000     -70.61190000
H      -48.03240000     -35.36900000     -69.79620000
H      -49.00850000     -34.17080000     -70.57320000
C      -46.80440000     -33.80260000     -70.55240000
H      -46.10560000     -34.20480000     -71.27310000
H      -47.06710000     -32.78800000     -70.95670000
C      -43.79260000     -32.35130000     -71.65050000
H      -44.80570000     -32.26370000     -72.08700000
H      -43.31690000     -31.42060000     -71.91540000
C      -43.76520000     -32.43660000     -70.09220000
C      -42.66920000     -31.91860000     -69.40400000
C      -44.78840000     -32.98070000     -69.18480000
H      -41.78510000     -31.56790000     -70.00020000
C      -44.31110000     -32.90690000     -67.86320000
C      -46.05880000     -33.67290000     -69.25260000
C      -46.48640000     -34.00740000     -67.96240000
S      -42.81550000     -32.07040000     -67.70650000
S      -45.51090000     -33.43830000     -66.63660000
H      -47.41010000     -34.53300000     -67.72490000
