40
Properties=species:S:1:pos:R:3 #=T CELL(abcABC):=T 1.889726e+02=T 90.00000=T Traj:=T positionsangstrom=T Step:=T 0=T Bead:=T pbc="F F F"
C      -41.80770000     -31.53370000     -72.56170000
C      -42.88880000     -30.72260000     -72.32200000
C      -44.08410000     -30.87090000     -73.04180000
C      -44.13930000     -31.73390000     -74.12720000
C      -43.04040000     -32.56150000     -74.35690000
C      -41.87780000     -32.46670000     -73.59620000
H      -40.82560000     -31.43360000     -72.09320000
H      -44.87680000     -30.20520000     -72.82630000
H      -43.08290000     -33.25670000     -75.11080000
H      -41.02530000     -33.09030000     -73.65420000
C      -45.29570000     -31.82040000     -75.05930000
H      -45.04550000     -31.65350000     -76.18230000
H      -46.07680000     -31.11750000     -74.87590000
C      -43.04570000     -29.74830000     -71.10880000
H      -42.16860000     -29.00070000     -70.89860000
H      -43.95870000     -29.16060000     -71.29260000
S      -46.06880000     -33.53590000     -75.20290000
S      -43.21700000     -30.63460000     -69.50200000
C      -47.03650000     -34.01690000     -73.70660000
H      -47.92580000     -33.38320000     -73.56240000
H      -47.46860000     -34.97520000     -74.00220000
C      -44.75990000     -31.67660000     -69.56890000
H      -45.32490000     -31.23840000     -70.38360000
H      -45.26690000     -31.41150000     -68.68110000
C      -44.38380000     -33.19420000     -69.63810000
H      -44.20350000     -33.58280000     -70.63860000
H      -43.42360000     -33.29790000     -69.08440000
C      -46.19830000     -34.11580000     -72.40660000
H      -45.81970000     -33.11900000     -72.15210000
H      -45.25890000     -34.69240000     -72.69700000
C      -46.86460000     -34.87050000     -71.30260000
C      -47.75240000     -35.91890000     -71.53310000
C      -46.47300000     -34.81510000     -69.92980000
H      -48.19620000     -36.22550000     -72.40980000
C      -47.17170000     -35.71180000     -69.12300000
C      -45.46750000     -34.12490000     -69.09550000
C      -45.48990000     -34.51300000     -67.79080000
S      -48.35820000     -36.62130000     -70.00670000
S      -46.82370000     -35.65070000     -67.45920000
H      -44.90200000     -34.17510000     -66.99970000
