40
Properties=species:S:1:pos:R:3 #=T CELL(abcABC):=T 1.889726e+02=T 90.00000=T Traj:=T positionsangstrom=T Step:=T 0=T Bead:=T pbc="F F F"
C      -41.78520000     -31.57710000     -72.68860000
C      -42.99000000     -30.92040000     -72.32230000
C      -44.10910000     -31.14420000     -73.11290000
C      -44.00760000     -31.86210000     -74.30980000
C      -42.77840000     -32.39270000     -74.72900000
C      -41.65450000     -32.27770000     -73.90920000
H      -40.93810000     -31.36980000     -72.03030000
H      -45.13040000     -30.88180000     -72.82080000
H      -42.67950000     -33.02070000     -75.65400000
H      -40.68350000     -32.73120000     -74.24880000
C      -45.23100000     -32.05660000     -75.20820000
H      -44.89420000     -31.83780000     -76.29470000
H      -46.12510000     -31.49530000     -75.00610000
C      -43.18040000     -29.95460000     -71.16900000
H      -42.30020000     -29.27150000     -71.28380000
H      -44.14790000     -29.45500000     -71.23920000
S      -45.83690000     -33.89380000     -75.25290000
S      -43.13650000     -30.81840000     -69.53180000
C      -46.75300000     -34.19060000     -73.64370000
H      -47.60420000     -33.49930000     -73.51470000
H      -47.17880000     -35.11900000     -74.04280000
C      -44.62650000     -31.78070000     -69.40080000
H      -45.27430000     -31.48140000     -70.27580000
H      -45.16070000     -31.38480000     -68.47040000
C      -44.34210000     -33.28230000     -69.50540000
H      -44.08040000     -33.46770000     -70.58300000
H      -43.42780000     -33.50940000     -68.84750000
C      -45.98610000     -34.16950000     -72.32580000
H      -45.90560000     -33.14810000     -71.95980000
H      -45.01780000     -34.63530000     -72.51550000
C      -46.78820000     -34.85630000     -71.22660000
C      -47.84830000     -35.70470000     -71.43050000
C      -46.46160000     -34.75420000     -69.81140000
H      -48.34980000     -35.86410000     -72.42680000
C      -47.44550000     -35.34620000     -69.02340000
C      -45.47890000     -34.14580000     -69.00960000
C      -45.70980000     -34.34910000     -67.68100000
S      -48.61780000     -36.22650000     -69.93990000
S      -47.12300000     -35.33670000     -67.34420000
H      -45.27020000     -34.00360000     -66.73640000
