40
Properties=species:S:1:pos:R:3 #=T CELL(abcABC):=T 1.889726e+02=T 90.00000=T Traj:=T positionsangstrom=T Step:=T 0=T Bead:=T pbc="F F F"
C      -47.91030000     -32.79140000     -73.97100000
C      -47.32590000     -34.05920000     -73.72310000
C      -46.00930000     -34.28160000     -74.15980000
C      -45.28280000     -33.28690000     -74.84290000
C      -45.96440000     -32.10120000     -75.24850000
C      -47.20830000     -31.82250000     -74.70220000
H      -48.96400000     -32.62710000     -73.88750000
H      -45.43280000     -35.11310000     -73.78510000
H      -45.52170000     -31.42200000     -75.93320000
H      -47.79050000     -30.99060000     -74.97590000
C      -43.83030000     -33.46000000     -75.14030000
H      -43.67450000     -32.90870000     -76.11060000
H      -43.55270000     -34.50770000     -75.35070000
C      -48.30080000     -35.16410000     -73.35220000
H      -49.33030000     -34.72810000     -73.14770000
H      -48.30810000     -35.84500000     -74.22090000
S      -42.59570000     -32.72320000     -73.92700000
S      -47.81930000     -36.18100000     -71.98110000
C      -43.23460000     -33.23700000     -72.26470000
H      -43.82880000     -34.16610000     -72.47010000
H      -42.39560000     -33.48320000     -71.55220000
C      -47.81130000     -34.93500000     -70.60790000
H      -47.83780000     -35.44760000     -69.63700000
H      -48.80150000     -34.44820000     -70.71480000
C      -46.72830000     -33.92780000     -70.66830000
H      -45.82090000     -34.24450000     -71.25120000
H      -47.08520000     -33.13970000     -71.21440000
C      -44.06740000     -32.14310000     -71.59930000
H      -45.13120000     -32.21440000     -71.86700000
H      -43.82650000     -31.21320000     -72.10150000
C      -43.85210000     -32.15520000     -70.07770000
C      -42.67270000     -31.80970000     -69.50520000
C      -44.79030000     -32.77970000     -69.16500000
H      -41.78840000     -31.35890000     -70.00970000
C      -44.28520000     -32.80310000     -67.87500000
C      -46.07880000     -33.47800000     -69.32550000
C      -46.53540000     -33.85280000     -68.10220000
S      -42.73310000     -32.10460000     -67.76210000
S      -45.35450000     -33.51360000     -66.70980000
H      -47.38170000     -34.48410000     -67.89020000
