40
Properties=species:S:1:pos:R:3 #=T CELL(abcABC):=T 1.889726e+02=T 90.00000=T Traj:=T positionsangstrom=T Step:=T 0=T Bead:=T pbc="F F F"
C      -41.97660000     -31.11730000     -72.77060000
C      -43.26550000     -30.76640000     -72.39900000
C      -44.33150000     -31.13580000     -73.24780000
C      -44.10320000     -31.95420000     -74.32990000
C      -42.78750000     -32.33760000     -74.69290000
C      -41.70410000     -31.88390000     -73.91140000
H      -41.18270000     -30.66730000     -72.17480000
H      -45.32850000     -30.85300000     -72.92190000
H      -42.65460000     -32.94240000     -75.51630000
H      -40.67190000     -32.09210000     -73.97010000
C      -45.18720000     -32.39780000     -75.25450000
H      -45.01710000     -32.25030000     -76.32280000
H      -46.20710000     -31.94020000     -74.99640000
C      -43.47230000     -29.90080000     -71.09550000
H      -42.79540000     -28.99000000     -71.05980000
H      -44.55250000     -29.47190000     -70.97270000
S      -45.32900000     -34.21490000     -75.11020000
S      -43.02090000     -30.84660000     -69.58070000
C      -46.46150000     -34.42280000     -73.67530000
H      -47.07410000     -33.52980000     -73.60570000
H      -47.10790000     -35.20870000     -74.01840000
C      -44.49890000     -31.87510000     -69.32220000
H      -45.34360000     -31.71350000     -69.99420000
H      -44.96040000     -31.48950000     -68.33940000
C      -44.19170000     -33.38800000     -69.41180000
H      -43.94610000     -33.67600000     -70.39750000
H      -43.27150000     -33.64380000     -68.85680000
C      -45.82930000     -34.57530000     -72.40060000
H      -45.17190000     -33.78710000     -72.05700000
H      -45.04810000     -35.33010000     -72.44140000
C      -46.82980000     -34.88080000     -71.26140000
C      -47.97470000     -35.60280000     -71.44410000
C      -46.59130000     -34.67610000     -69.80800000
H      -48.33910000     -35.92510000     -72.39880000
C      -47.54130000     -35.31930000     -69.04270000
C      -45.42620000     -34.20580000     -68.99980000
C      -45.64720000     -34.43920000     -67.68110000
S      -48.88140000     -35.90780000     -70.00580000
S      -47.25640000     -35.21130000     -67.31530000
H      -45.03620000     -34.31710000     -66.84200000
