40
Properties=species:S:1:pos:R:3 #=T CELL(abcABC):=T 1.889726e+02=T 90.00000=T Traj:=T positionsangstrom=T Step:=T 0=T Bead:=T pbc="F F F"
C      -41.80850000     -31.44310000     -72.58560000
C      -43.00570000     -30.78510000     -72.21230000
C      -44.12080000     -30.92480000     -73.04750000
C      -44.14130000     -31.82050000     -74.13120000
C      -42.94060000     -32.47110000     -74.45360000
C      -41.79670000     -32.28900000     -73.69480000
H      -40.99680000     -31.46860000     -71.92130000
H      -45.06270000     -30.45160000     -72.80640000
H      -42.89690000     -33.08840000     -75.31200000
H      -40.89940000     -32.80080000     -73.95560000
C      -45.39360000     -31.90860000     -74.91810000
H      -45.22470000     -31.58080000     -75.90290000
H      -46.12340000     -31.23390000     -74.41790000
C      -42.91340000     -29.81550000     -71.11130000
H      -41.95370000     -29.35440000     -71.09350000
H      -43.65440000     -29.04230000     -71.22180000
S      -45.97000000     -33.65390000     -75.21390000
S      -43.12120000     -30.72420000     -69.54750000
C      -46.96890000     -33.92730000     -73.64080000
H      -47.54510000     -32.96420000     -73.51680000
H      -47.56340000     -34.76710000     -73.92530000
C      -44.73760000     -31.75400000     -69.75720000
H      -45.15720000     -31.47880000     -70.77140000
H      -45.48600000     -31.56650000     -68.96910000
C      -44.40330000     -33.23480000     -69.59510000
H      -43.94390000     -33.58570000     -70.55470000
H      -43.58040000     -33.36100000     -68.86350000
C      -46.13820000     -34.12940000     -72.32870000
H      -45.88890000     -33.15730000     -71.89140000
H      -45.14870000     -34.55390000     -72.62130000
C      -46.88330000     -34.88710000     -71.26310000
C      -47.90600000     -35.78280000     -71.50320000
C      -46.46030000     -34.88280000     -69.87890000
H      -48.35040000     -36.09650000     -72.38620000
C      -47.21360000     -35.76590000     -69.09980000
C      -45.49250000     -34.14850000     -69.12200000
C      -45.75390000     -34.28970000     -67.81010000
S      -48.42230000     -36.57730000     -70.05110000
S      -46.84850000     -35.56530000     -67.41450000
H      -45.14860000     -33.83390000     -67.00760000
