40
Properties=species:S:1:pos:R:3 #=T CELL(abcABC):=T 1.889726e+02=T 90.00000=T Traj:=T positionsangstrom=T Step:=T 0=T Bead:=T pbc="F F F"
C      -48.71360000     -32.24420000     -70.09600000
C      -47.85070000     -31.29060000     -70.71120000
C      -46.70220000     -30.83150000     -70.02390000
C      -46.36330000     -31.32520000     -68.74430000
C      -47.27400000     -32.19080000     -68.10580000
C      -48.44430000     -32.67940000     -68.76970000
H      -49.59820000     -32.60140000     -70.60920000
H      -46.08490000     -29.99570000     -70.40630000
H      -47.04080000     -32.60140000     -67.10560000
H      -49.15410000     -33.27260000     -68.14750000
C      -45.12970000     -30.83670000     -68.11780000
H      -45.21340000     -30.54030000     -67.08120000
H      -44.74710000     -30.12990000     -68.77860000
C      -48.25420000     -30.57450000     -72.01400000
H      -49.04580000     -31.08590000     -72.45900000
H      -48.57230000     -29.55530000     -71.87560000
S      -43.84060000     -32.16650000     -67.96960000
S      -46.75200000     -30.50000000     -73.16860000
C      -43.52670000     -32.87700000     -69.70180000
H      -43.66850000     -32.10330000     -70.50610000
H      -42.46580000     -33.18980000     -69.55980000
C      -45.67130000     -31.99250000     -72.85770000
H      -45.09510000     -31.87770000     -71.98420000
H      -44.99000000     -32.01770000     -73.69960000
C      -46.46490000     -33.30120000     -72.79550000
H      -46.84800000     -33.54470000     -71.79800000
H      -47.30110000     -33.21030000     -73.55300000
C      -44.35860000     -34.11430000     -69.93260000
H      -45.36650000     -33.75480000     -70.01830000
H      -44.27280000     -34.61320000     -68.99340000
C      -43.88030000     -35.09780000     -71.02470000
C      -42.86000000     -35.98640000     -70.83570000
C      -44.46410000     -35.15690000     -72.31930000
H      -42.28520000     -35.96470000     -69.94790000
C      -43.67050000     -36.05040000     -73.09130000
C      -45.54630000     -34.50010000     -73.10850000
C      -45.62270000     -35.02650000     -74.34480000
S      -42.40850000     -36.93290000     -72.23240000
S      -44.36670000     -36.23250000     -74.73210000
H      -46.16090000     -34.60470000     -75.25970000
