40
Properties=species:S:1:pos:R:3 #=T CELL(abcABC):=T 1.889726e+02=T 90.00000=T Traj:=T positionsangstrom=T Step:=T 0=T Bead:=T pbc="F F F"
C      -45.34460000     -37.39320000     -71.61360000
C      -44.23510000     -36.61190000     -71.89000000
C      -43.60930000     -35.92470000     -70.84740000
C      -43.96920000     -35.98100000     -69.49880000
C      -45.10970000     -36.72140000     -69.23090000
C      -45.79210000     -37.44680000     -70.23910000
H      -46.00180000     -37.77940000     -72.40650000
H      -42.74610000     -35.43850000     -71.10890000
H      -45.39100000     -36.90790000     -68.20410000
H      -46.63160000     -38.11310000     -69.96010000
C      -43.22930000     -35.36580000     -68.32670000
H      -42.17750000     -35.02420000     -68.58130000
H      -42.95220000     -36.03890000     -67.57790000
C      -43.55380000     -36.48740000     -73.30070000
H      -42.70340000     -35.81220000     -73.21950000
H      -43.21810000     -37.41150000     -73.76620000
S      -44.17330000     -33.91350000     -67.52090000
S      -44.71080000     -35.65580000     -74.49330000
C      -45.14990000     -33.07590000     -68.84840000
H      -45.86150000     -33.81180000     -69.38090000
H      -45.70960000     -32.29430000     -68.32240000
C      -45.06970000     -33.90860000     -73.74910000
H      -45.19930000     -33.30510000     -74.65360000
H      -44.18900000     -33.46420000     -73.29180000
C      -46.27640000     -33.86700000     -72.72560000
H      -47.11250000     -34.46360000     -73.15520000
H      -45.99490000     -34.38000000     -71.79880000
C      -44.30650000     -32.47810000     -69.97940000
H      -44.33250000     -33.24680000     -70.80140000
H      -43.30990000     -32.24940000     -69.78180000
C      -45.00550000     -31.29570000     -70.75070000
C      -44.77250000     -30.01780000     -70.37970000
C      -46.03470000     -31.38200000     -71.75310000
H      -43.97890000     -29.73100000     -69.67600000
C      -46.67150000     -30.18120000     -71.93680000
C      -46.74450000     -32.44110000     -72.41380000
C      -47.73060000     -31.91410000     -73.21420000
S      -45.79080000     -28.77690000     -71.24150000
S      -47.95620000     -30.16620000     -73.06170000
H      -48.24500000     -32.40570000     -73.99590000
