40
Properties=species:S:1:pos:R:3 #=T CELL(abcABC):=T 1.889726e+02=T 90.00000=T Traj:=T positionsangstrom=T Step:=T 0=T Bead:=T pbc="F F F"
C      -45.31770000     -37.28640000     -71.61370000
C      -44.15750000     -36.50130000     -71.84120000
C      -43.61940000     -35.78860000     -70.75390000
C      -44.00040000     -35.93230000     -69.42760000
C      -45.10700000     -36.76980000     -69.18950000
C      -45.74760000     -37.43220000     -70.25860000
H      -45.74070000     -37.78900000     -72.47190000
H      -42.73910000     -35.17700000     -70.92130000
H      -45.56390000     -36.79950000     -68.19280000
H      -46.70550000     -37.95320000     -70.07470000
C      -43.19300000     -35.25810000     -68.30990000
H      -42.12730000     -35.05990000     -68.68740000
H      -43.16270000     -35.99290000     -67.51450000
C      -43.60580000     -36.23090000     -73.21940000
H      -42.66650000     -35.58640000     -73.12700000
H      -43.27310000     -37.13570000     -73.71750000
S      -43.96000000     -33.71450000     -67.66800000
S      -44.84450000     -35.53920000     -74.45250000
C      -45.08040000     -33.19060000     -69.09880000
H      -45.88720000     -33.81330000     -69.32910000
H      -45.48600000     -32.31870000     -68.59470000
C      -45.37000000     -33.86260000     -73.79490000
H      -46.01210000     -33.52910000     -74.60100000
H      -44.42340000     -33.22800000     -73.61380000
C      -46.26110000     -33.92440000     -72.57820000
H      -47.03810000     -34.66110000     -72.73850000
H      -45.65700000     -34.17750000     -71.75670000
C      -44.20960000     -32.65500000     -70.27600000
H      -43.99580000     -33.40580000     -71.03780000
H      -43.24560000     -32.39430000     -69.85140000
C      -44.91130000     -31.40920000     -70.86630000
C      -44.72850000     -30.13710000     -70.39400000
C      -46.05800000     -31.48410000     -71.76310000
H      -44.19000000     -29.88890000     -69.51760000
C      -46.61160000     -30.19530000     -72.01270000
C      -46.81640000     -32.54060000     -72.43380000
C      -47.80110000     -31.99070000     -73.22980000
S      -45.80470000     -28.95220000     -71.09390000
S      -48.00190000     -30.28330000     -72.97390000
H      -48.57120000     -32.57610000     -73.70970000
