40
Properties=species:S:1:pos:R:3 #=T CELL(abcABC):=T 1.889726e+02=T 90.00000=T Traj:=T positionsangstrom=T Step:=T 0=T Bead:=T pbc="F F F"
C      -45.29360000     -37.47340000     -71.56360000
C      -44.12220000     -36.84020000     -71.89470000
C      -43.49620000     -36.13070000     -70.82030000
C      -43.98400000     -36.11120000     -69.54850000
C      -45.24360000     -36.75280000     -69.24220000
C      -45.81430000     -37.54510000     -70.24310000
H      -45.88870000     -37.97750000     -72.35560000
H      -42.47130000     -35.72490000     -71.04160000
H      -45.72940000     -36.60800000     -68.23710000
H      -46.80240000     -37.93380000     -70.08170000
C      -43.36750000     -35.08990000     -68.60560000
H      -42.66610000     -34.48460000     -69.21400000
H      -42.85370000     -35.52220000     -67.66860000
C      -43.62770000     -36.82550000     -73.35690000
H      -42.59930000     -36.64830000     -73.57950000
H      -43.92040000     -37.73920000     -73.78900000
S      -44.60790000     -34.00870000     -67.77790000
S      -44.68250000     -35.62050000     -74.26290000
C      -45.52790000     -33.18070000     -69.20660000
H      -46.07620000     -33.96700000     -69.75640000
H      -46.26210000     -32.47850000     -68.70770000
C      -44.81180000     -33.98600000     -73.35860000
H      -44.71290000     -33.25980000     -74.17960000
H      -43.88530000     -34.00030000     -72.72280000
C      -46.12220000     -33.80610000     -72.55020000
H      -46.90350000     -34.35450000     -73.13040000
H      -46.00240000     -34.26190000     -71.57530000
C      -44.36140000     -32.43000000     -69.95090000
H      -43.91940000     -33.05740000     -70.66530000
H      -43.51780000     -32.25710000     -69.20250000
C      -45.04100000     -31.22380000     -70.59770000
C      -44.89000000     -29.94490000     -70.11480000
C      -46.03370000     -31.26410000     -71.61660000
H      -44.19400000     -29.66800000     -69.31330000
C      -46.50880000     -30.02440000     -72.03490000
C      -46.44730000     -32.30470000     -72.51870000
C      -47.27590000     -31.79000000     -73.50170000
S      -45.95510000     -28.72340000     -70.85840000
S      -47.60390000     -30.06030000     -73.41870000
H      -47.97890000     -32.36680000     -74.11720000
