40
Properties=species:S:1:pos:R:3 #=T CELL(abcABC):=T 1.889726e+02=T 90.00000=T Traj:=T positionsangstrom=T Step:=T 0=T Bead:=T pbc="F F F"
C      -45.76740000     -36.81400000     -71.79820000
C      -44.43930000     -36.40690000     -71.58040000
C      -44.01480000     -36.03280000     -70.27110000
C      -44.96280000     -36.33650000     -69.23730000
C      -46.22120000     -36.86630000     -69.50000000
C      -46.64380000     -37.04060000     -70.79490000
H      -46.09660000     -36.85080000     -72.86530000
H      -42.91420000     -35.74920000     -70.15360000
H      -46.92120000     -36.94120000     -68.66370000
H      -47.62200000     -37.47030000     -70.85160000
C      -44.59270000     -35.94370000     -67.77700000
H      -43.47610000     -35.93560000     -67.60000000
H      -45.12680000     -36.56820000     -67.05300000
C      -43.38390000     -36.29900000     -72.66210000
H      -42.52390000     -35.63780000     -72.42750000
H      -43.00210000     -37.31420000     -72.87930000
S      -45.17550000     -34.18240000     -67.47310000
S      -43.91590000     -35.81450000     -74.34660000
C      -45.71210000     -33.40400000     -69.02860000
H      -45.76590000     -34.13250000     -69.81520000
H      -46.73210000     -33.04080000     -68.87100000
C      -44.37820000     -34.03920000     -74.17910000
H      -45.06370000     -33.92780000     -75.03780000
H      -43.57510000     -33.36000000     -74.38170000
C      -45.01980000     -33.71680000     -72.79880000
H      -45.75490000     -34.47660000     -72.47190000
H      -44.22980000     -33.83970000     -72.08030000
C      -44.63850000     -32.30980000     -69.52830000
H      -43.92340000     -32.83830000     -70.19210000
H      -44.00140000     -31.96650000     -68.66190000
C      -45.27500000     -31.18680000     -70.34660000
C      -45.67930000     -29.97560000     -69.75690000
C      -45.54960000     -31.22310000     -71.77620000
H      -45.85130000     -29.79210000     -68.71400000
C      -46.13780000     -29.98790000     -72.19890000
C      -45.57180000     -32.26340000     -72.84210000
C      -46.08750000     -31.74650000     -73.99840000
S      -46.30190000     -28.83270000     -70.92210000
S      -46.58960000     -30.01130000     -73.87410000
H      -46.27440000     -32.32500000     -74.88930000
