40
Properties=species:S:1:pos:R:3 #=T CELL(abcABC):=T 1.889726e+02=T 90.00000=T Traj:=T positionsangstrom=T Step:=T 0=T Bead:=T pbc="F F F"
C      -45.67670000     -37.07200000     -71.83380000
C      -44.44260000     -36.50370000     -71.50620000
C      -44.14730000     -35.91010000     -70.28580000
C      -45.06660000     -35.98100000     -69.22720000
C      -46.35810000     -36.61520000     -69.51670000
C      -46.59960000     -36.98770000     -70.83830000
H      -46.00150000     -37.40490000     -72.81860000
H      -43.20710000     -35.46910000     -70.05310000
H      -47.13940000     -36.65140000     -68.78050000
H      -47.54950000     -37.38900000     -70.99460000
C      -44.72820000     -35.51780000     -67.82880000
H      -43.70240000     -35.22630000     -67.85500000
H      -44.95550000     -36.28310000     -67.11290000
C      -43.28760000     -36.58370000     -72.48640000
H      -42.46820000     -35.93520000     -72.10660000
H      -42.89280000     -37.57940000     -72.52630000
S      -45.67640000     -34.04030000     -67.20770000
S      -43.69860000     -36.04780000     -74.24020000
C      -46.27830000     -33.07100000     -68.74660000
H      -47.01110000     -33.66020000     -69.30600000
H      -46.86090000     -32.25430000     -68.30810000
C      -43.97990000     -34.16710000     -74.11860000
H      -44.18940000     -33.83470000     -75.14690000
H      -42.93740000     -33.81900000     -73.79900000
C      -45.03030000     -33.63120000     -73.11430000
H      -46.04210000     -34.06070000     -73.42290000
H      -44.88860000     -34.17140000     -72.10510000
C      -45.08320000     -32.67780000     -69.63440000
H      -44.86310000     -33.52600000     -70.36330000
H      -44.11530000     -32.63570000     -69.13890000
C      -45.36740000     -31.43180000     -70.43010000
C      -45.85440000     -30.29890000     -69.80660000
C      -45.58610000     -31.33770000     -71.88260000
H      -46.02480000     -30.27880000     -68.74990000
C      -45.98210000     -30.05420000     -72.24700000
C      -45.30470000     -32.14650000     -73.00200000
C      -45.52880000     -31.46750000     -74.18500000
S      -46.36730000     -29.01590000     -70.87480000
S      -46.10770000     -29.78860000     -74.05740000
H      -45.53290000     -31.99070000     -75.18540000
