40
Properties=species:S:1:pos:R:3 #=T CELL(abcABC):=T 1.889726e+02=T 90.00000=T Traj:=T positionsangstrom=T Step:=T 0=T Bead:=T pbc="F F F"
C      -45.71330000     -36.88600000     -71.84530000
C      -44.43840000     -36.44290000     -71.54330000
C      -44.06580000     -36.03460000     -70.23230000
C      -45.06570000     -36.18060000     -69.20110000
C      -46.32440000     -36.73350000     -69.51160000
C      -46.63040000     -37.16040000     -70.82770000
H      -45.94040000     -37.08860000     -72.84100000
H      -43.08410000     -35.59630000     -70.00470000
H      -47.06490000     -36.96730000     -68.75310000
H      -47.66880000     -37.52730000     -71.08080000
C      -44.66220000     -35.84470000     -67.84850000
H      -43.59330000     -35.82910000     -67.67310000
H      -45.04150000     -36.56190000     -67.14510000
C      -43.32220000     -36.26140000     -72.51500000
H      -42.53310000     -35.62400000     -72.23930000
H      -42.86230000     -37.26810000     -72.50680000
S      -45.32240000     -34.21410000     -67.25110000
S      -43.82510000     -35.87200000     -74.26850000
C      -45.92330000     -33.32600000     -68.81160000
H      -46.40530000     -34.10290000     -69.47920000
H      -46.78610000     -32.66790000     -68.61500000
C      -44.11790000     -34.05340000     -74.11630000
H      -44.66430000     -33.79040000     -75.07470000
H      -43.21310000     -33.47050000     -74.08160000
C      -44.97140000     -33.60470000     -72.92360000
H      -45.79000000     -34.28260000     -72.56950000
H      -44.36770000     -33.56100000     -71.99300000
C      -44.84180000     -32.48380000     -69.54890000
H      -44.15950000     -33.09520000     -70.08790000
H      -44.30200000     -31.94880000     -68.85540000
C      -45.40050000     -31.34010000     -70.41300000
C      -45.69610000     -30.10780000     -69.79690000
C      -45.55380000     -31.30470000     -71.87370000
H      -45.70720000     -29.92100000     -68.75260000
C      -46.09980000     -30.06860000     -72.26110000
C      -45.46900000     -32.17730000     -73.02710000
C      -45.80060000     -31.54090000     -74.18090000
S      -46.30500000     -28.89990000     -70.95480000
S      -46.51990000     -29.89750000     -74.01280000
H      -45.74650000     -32.00100000     -75.14900000
