40
Properties=species:S:1:pos:R:3 #=T CELL(abcABC):=T 1.889726e+02=T 90.00000=T Traj:=T positionsangstrom=T Step:=T 0=T Bead:=T pbc="F F F"
C      -49.24560000     -31.30780000     -70.55580000
C      -47.97250000     -30.99340000     -71.02500000
C      -46.79120000     -31.16420000     -70.23790000
C      -46.94830000     -31.60490000     -68.91640000
C      -48.25220000     -31.90700000     -68.45950000
C      -49.40930000     -31.78480000     -69.21790000
H      -50.11680000     -31.26450000     -71.21810000
H      -45.84450000     -30.72740000     -70.62280000
H      -48.27250000     -32.40080000     -67.47650000
H      -50.30890000     -31.97290000     -68.69880000
C      -45.67400000     -31.66280000     -68.02410000
H      -45.77100000     -31.03500000     -67.18850000
H      -44.72370000     -31.38230000     -68.51860000
C      -47.82380000     -30.57080000     -72.53040000
H      -48.15650000     -31.30740000     -73.22720000
H      -48.22050000     -29.54590000     -72.73470000
S      -45.22110000     -33.36880000     -67.30420000
S      -46.11770000     -30.19770000     -72.99870000
C      -44.13240000     -34.04800000     -68.58220000
H      -43.14340000     -33.46930000     -68.56960000
H      -43.77580000     -35.06340000     -68.20820000
C      -45.18390000     -31.83760000     -72.91190000
H      -44.55500000     -31.85500000     -71.99900000
H      -44.35340000     -31.79580000     -73.69860000
C      -46.01630000     -33.12380000     -73.08500000
H      -46.62230000     -33.28680000     -72.18750000
H      -46.55240000     -33.11040000     -73.95900000
C      -44.56460000     -34.04650000     -70.00180000
H      -44.40360000     -33.12760000     -70.50480000
H      -45.62510000     -34.24250000     -70.12330000
C      -43.77780000     -34.97580000     -71.00200000
C      -42.75570000     -35.86430000     -70.68730000
C      -44.08660000     -35.00140000     -72.39000000
H      -42.43000000     -36.12060000     -69.68980000
C      -43.22090000     -35.84570000     -73.08880000
C      -45.01990000     -34.31330000     -73.33720000
C      -44.77100000     -34.72320000     -74.65490000
S      -42.17810000     -36.80110000     -72.13730000
S      -43.52280000     -35.90710000     -74.79800000
H      -45.36130000     -34.36130000     -75.47190000
