40
Properties=species:S:1:pos:R:3 #=T CELL(abcABC):=T 1.889726e+02=T 90.00000=T Traj:=T positionsangstrom=T Step:=T 0=T Bead:=T pbc="F F F"
C      -45.57670000     -37.13390000     -71.78100000
C      -44.33760000     -36.53720000     -71.43900000
C      -44.03760000     -36.09090000     -70.12660000
C      -45.13740000     -36.04710000     -69.19540000
C      -46.40800000     -36.59430000     -69.57560000
C      -46.59850000     -37.15270000     -70.85720000
H      -45.77210000     -37.56530000     -72.75430000
H      -43.09330000     -35.72420000     -69.89170000
H      -47.26360000     -36.56620000     -68.88020000
H      -47.61490000     -37.57690000     -71.10250000
C      -44.85360000     -35.64270000     -67.78780000
H      -43.77180000     -35.67550000     -67.60020000
H      -45.27300000     -36.44920000     -67.11070000
C      -43.32020000     -36.41410000     -72.60810000
H      -42.45900000     -35.72870000     -72.33430000
H      -42.84080000     -37.38100000     -72.82650000
S      -45.48450000     -34.00510000     -67.25450000
S      -43.92980000     -35.82990000     -74.22310000
C      -46.06010000     -33.05360000     -68.66760000
H      -46.85140000     -33.60380000     -69.19740000
H      -46.45130000     -32.17810000     -68.21430000
C      -43.85020000     -34.01130000     -74.12920000
H      -44.15240000     -33.65810000     -75.07880000
H      -42.79910000     -33.66720000     -73.91730000
C      -44.90820000     -33.62260000     -73.06380000
H      -45.71160000     -34.29230000     -73.21430000
H      -44.41440000     -33.81110000     -72.14670000
C      -44.93060000     -32.70340000     -69.68670000
H      -44.59080000     -33.67090000     -70.27530000
H      -44.06170000     -32.47060000     -68.95230000
C      -45.37030000     -31.44560000     -70.45440000
C      -45.82170000     -30.30520000     -69.79390000
C      -45.61270000     -31.33680000     -71.92270000
H      -45.47130000     -30.01950000     -68.79400000
C      -46.14600000     -30.13370000     -72.26720000
C      -45.37620000     -32.15970000     -73.09060000
C      -45.65030000     -31.46330000     -74.24760000
S      -46.35400000     -29.09540000     -70.93810000
S      -46.26480000     -29.82560000     -73.96940000
H      -45.60730000     -31.78730000     -75.27380000
