40
Properties=species:S:1:pos:R:3 #=T CELL(abcABC):=T 1.889726e+02=T 90.00000=T Traj:=T positionsangstrom=T Step:=T 0=T Bead:=T pbc="F F F"
C      -49.43620000     -34.70460000     -73.08680000
C      -48.11580000     -34.99760000     -72.80760000
C      -47.07120000     -34.23390000     -73.28980000
C      -47.30710000     -33.19890000     -74.20650000
C      -48.63510000     -32.93020000     -74.55580000
C      -49.67920000     -33.67600000     -73.97990000
H      -50.26780000     -35.26310000     -72.64790000
H      -46.09000000     -34.67220000     -73.14610000
H      -48.87610000     -32.19580000     -75.31320000
H      -50.71140000     -33.48980000     -74.25830000
C      -46.21050000     -32.34840000     -74.78030000
H      -46.21450000     -31.45240000     -74.26150000
H      -46.55470000     -32.06940000     -75.84720000
C      -47.74500000     -36.12990000     -71.91780000
H      -48.66630000     -36.67960000     -71.61130000
H      -47.29350000     -36.94570000     -72.57270000
S      -44.50170000     -33.03840000     -74.80730000
S      -46.64120000     -35.84650000     -70.41690000
C      -43.52570000     -32.42850000     -73.29770000
H      -42.50250000     -32.05370000     -73.55480000
H      -44.01000000     -31.58080000     -72.71200000
C      -47.21600000     -34.20970000     -69.65550000
H      -46.93560000     -34.44660000     -68.64370000
H      -48.28310000     -34.14450000     -69.68360000
C      -46.49910000     -32.98980000     -70.17300000
H      -46.19310000     -33.14490000     -71.25660000
H      -47.07390000     -32.04100000     -70.28280000
C      -43.42460000     -33.59880000     -72.28660000
H      -42.62050000     -34.26380000     -72.63060000
H      -44.38220000     -34.24840000     -72.21520000
C      -43.03050000     -32.96690000     -70.94450000
C      -41.67030000     -32.90130000     -70.73480000
C      -43.85830000     -32.70670000     -69.75280000
H      -40.84050000     -33.03540000     -71.37410000
C      -43.01680000     -32.35880000     -68.69500000
C      -45.24670000     -32.70780000     -69.33070000
C      -45.36120000     -32.35910000     -68.01380000
S      -41.32540000     -32.46390000     -69.11790000
S      -43.87250000     -31.86870000     -67.30510000
H      -46.23490000     -32.10400000     -67.41830000
