40
Properties=species:S:1:pos:R:3 #=T CELL(abcABC):=T 1.889726e+02=T 90.00000=T Traj:=T positionsangstrom=T Step:=T 0=T Bead:=T pbc="F F F"
C      -42.07130000     -32.16140000     -70.96240000
C      -42.81730000     -31.37020000     -71.86670000
C      -43.13750000     -31.85560000     -73.14650000
C      -42.50760000     -32.99060000     -73.66520000
C      -41.68800000     -33.71800000     -72.80360000
C      -41.48600000     -33.30030000     -71.47090000
H      -41.81690000     -31.81980000     -69.85160000
H      -43.74310000     -31.27740000     -73.90810000
H      -41.06610000     -34.50990000     -73.29900000
H      -40.81710000     -33.96320000     -70.83890000
C      -42.93320000     -33.60910000     -74.96980000
H      -42.05010000     -33.93410000     -75.56390000
H      -43.56590000     -32.88380000     -75.59160000
C      -43.39190000     -30.06480000     -71.57410000
H      -42.64700000     -29.24080000     -71.64010000
H      -44.24070000     -29.95560000     -72.34120000
S      -43.78820000     -35.20610000     -74.65600000
S      -44.16770000     -29.77800000     -69.86090000
C      -45.42760000     -34.89980000     -73.62090000
H      -45.80850000     -33.90650000     -73.86250000
H      -46.16700000     -35.62180000     -74.00310000
C      -45.78330000     -30.81700000     -70.04900000
H      -46.30590000     -30.70010000     -70.98040000
H      -46.47340000     -30.49340000     -69.27920000
C      -45.34220000     -32.26710000     -69.84940000
H      -44.77780000     -32.67280000     -70.62110000
H      -44.63260000     -32.32750000     -69.01480000
C      -45.16750000     -35.07260000     -72.06400000
H      -44.45410000     -34.26000000     -71.85100000
H      -44.52720000     -35.95680000     -71.89500000
C      -46.51560000     -35.04780000     -71.31180000
C      -47.47880000     -35.99290000     -71.64680000
C      -47.08170000     -34.23470000     -70.25750000
H      -47.27350000     -36.89280000     -72.17280000
C      -48.26940000     -34.73790000     -69.68880000
C      -46.55870000     -33.13190000     -69.54230000
C      -47.42750000     -32.81060000     -68.47030000
S      -48.85780000     -36.04370000     -70.61850000
S      -48.88470000     -33.81130000     -68.36840000
H      -47.40800000     -31.92100000     -67.85710000
