40
Properties=species:S:1:pos:R:3 #=T CELL(abcABC):=T 1.889726e+02=T 90.00000=T Traj:=T positionsangstrom=T Step:=T 0=T Bead:=T pbc="F F F"
C      -49.42780000     -34.61060000     -73.18320000
C      -48.14550000     -34.93220000     -72.75730000
C      -47.01620000     -34.25720000     -73.41460000
C      -47.21280000     -33.20630000     -74.28620000
C      -48.59290000     -32.94010000     -74.65420000
C      -49.69640000     -33.65120000     -74.13940000
H      -50.21710000     -35.19480000     -72.74770000
H      -46.05670000     -34.41370000     -72.99210000
H      -48.78390000     -32.04040000     -75.30350000
H      -50.61270000     -33.63330000     -74.57790000
C      -46.15900000     -32.26900000     -74.79460000
H      -46.09790000     -31.40050000     -74.13470000
H      -46.38180000     -31.82160000     -75.78800000
C      -47.93680000     -36.11940000     -71.82910000
H      -48.84400000     -36.57510000     -71.46150000
H      -47.37090000     -36.87010000     -72.38750000
S      -44.51590000     -33.08980000     -74.94630000
S      -46.75710000     -35.87140000     -70.44440000
C      -43.69020000     -32.48790000     -73.33820000
H      -42.74570000     -32.25090000     -73.61920000
H      -44.33770000     -31.60720000     -73.07950000
C      -47.22050000     -34.13800000     -69.93100000
H      -47.38060000     -34.09480000     -68.81330000
H      -48.29340000     -33.95120000     -70.28700000
C      -46.36550000     -32.96070000     -70.28610000
H      -46.06600000     -32.99440000     -71.32000000
H      -47.06950000     -32.15180000     -70.25330000
C      -43.55810000     -33.42580000     -72.13270000
H      -43.13300000     -34.35650000     -72.46040000
H      -44.59760000     -33.79700000     -71.94180000
C      -42.91050000     -33.03050000     -70.83380000
C      -41.57970000     -32.96080000     -70.59470000
C      -43.77650000     -32.64450000     -69.72970000
H      -40.86560000     -33.39560000     -71.26980000
C      -42.98900000     -32.22000000     -68.62530000
C      -45.19420000     -32.72480000     -69.36870000
C      -45.37880000     -32.37110000     -68.06210000
S      -41.25690000     -32.37370000     -68.95110000
S      -43.83770000     -32.09910000     -67.11790000
H      -46.41200000     -32.31480000     -67.57210000
