40
Properties=species:S:1:pos:R:3 #=T CELL(abcABC):=T 1.889726e+02=T 90.00000=T Traj:=T positionsangstrom=T Step:=T 0=T Bead:=T pbc="F F F"
C      -46.48690000     -35.40200000     -75.04960000
C      -45.24480000     -35.29640000     -74.33590000
C      -45.16210000     -35.72820000     -72.98310000
C      -46.37050000     -36.14930000     -72.34150000
C      -47.56200000     -36.21930000     -73.07580000
C      -47.69700000     -35.88910000     -74.46980000
H      -46.38150000     -35.00180000     -76.03210000
H      -44.20510000     -35.73420000     -72.49360000
H      -48.53040000     -36.40680000     -72.54470000
H      -48.64310000     -35.93770000     -74.94340000
C      -46.31660000     -36.56890000     -70.93120000
H      -45.35010000     -37.01910000     -70.70620000
H      -47.00370000     -37.38670000     -70.57650000
C      -44.04450000     -34.77570000     -75.09520000
H      -43.07750000     -35.14780000     -74.74440000
H      -44.15540000     -35.06610000     -76.11460000
S      -46.40640000     -35.19340000     -69.71980000
S      -44.08410000     -32.91890000     -75.10560000
C      -47.90470000     -34.25310000     -70.18170000
H      -48.30970000     -34.60610000     -71.11820000
H      -48.65730000     -34.36110000     -69.45780000
C      -43.51490000     -32.46400000     -73.38980000
H      -42.90600000     -31.59630000     -73.47050000
H      -42.86560000     -33.31330000     -73.09170000
C      -44.71840000     -32.25510000     -72.42920000
H      -45.14590000     -31.32040000     -72.78820000
H      -45.43580000     -33.10800000     -72.46780000
C      -47.54830000     -32.68270000     -70.32860000
H      -48.47640000     -32.12700000     -69.97340000
H      -47.52150000     -32.33920000     -71.35560000
C      -46.41130000     -32.11760000     -69.49340000
C      -46.70900000     -31.76540000     -68.19470000
C      -45.01300000     -31.87680000     -69.80580000
H      -47.73830000     -31.85720000     -67.91070000
C      -44.29760000     -31.41800000     -68.67710000
C      -44.24780000     -31.96420000     -71.00420000
C      -42.92740000     -31.52110000     -70.80100000
S      -45.27590000     -31.19830000     -67.23790000
S      -42.62750000     -31.01000000     -69.12260000
H      -42.09030000     -31.43950000     -71.46080000
