40
Properties=species:S:1:pos:R:3 #=T CELL(abcABC):=T 1.889726e+02=T 90.00000=T Traj:=T positionsangstrom=T Step:=T 0=T Bead:=T pbc="F F F"
C      -42.17910000     -32.04760000     -70.61470000
C      -42.83840000     -31.40660000     -71.68220000
C      -43.10040000     -32.05310000     -72.90940000
C      -42.66730000     -33.35810000     -73.12610000
C      -42.05640000     -34.01150000     -72.04100000
C      -41.82350000     -33.32280000     -70.82310000
H      -41.91980000     -31.59020000     -69.73420000
H      -43.62700000     -31.58010000     -73.70020000
H      -41.88460000     -35.03120000     -72.23730000
H      -41.23460000     -33.80630000     -70.02130000
C      -42.69650000     -34.00940000     -74.47090000
H      -41.81280000     -34.66790000     -74.59300000
H      -42.71050000     -33.35970000     -75.26690000
C      -43.28810000     -29.99460000     -71.54520000
H      -42.48470000     -29.31420000     -71.72140000
H      -43.96630000     -29.77370000     -72.39380000
S      -44.02680000     -35.22390000     -74.78450000
S      -43.95160000     -29.71030000     -69.79940000
C      -45.38740000     -34.53330000     -73.71630000
H      -45.53200000     -33.48720000     -73.87360000
H      -46.35460000     -34.99070000     -73.99060000
C      -45.54550000     -30.63330000     -69.90170000
H      -46.25580000     -30.08640000     -70.60610000
H      -46.08070000     -30.60780000     -68.90220000
C      -45.50390000     -32.08820000     -70.31230000
H      -45.45150000     -32.13840000     -71.35740000
H      -44.66260000     -32.55310000     -69.80080000
C      -45.23900000     -34.82140000     -72.23300000
H      -44.65170000     -33.99330000     -71.72160000
H      -44.67010000     -35.76080000     -72.26110000
C      -46.52680000     -35.01890000     -71.49780000
C      -47.08630000     -36.27390000     -71.56090000
C      -47.04370000     -34.16010000     -70.48090000
H      -46.92680000     -36.84420000     -72.46600000
C      -48.25420000     -34.67060000     -70.03000000
C      -46.67870000     -32.89070000     -69.91520000
C      -47.57820000     -32.54510000     -68.98540000
S      -48.63680000     -36.30870000     -70.63740000
S      -48.92880000     -33.72070000     -68.74930000
H      -47.59670000     -31.68540000     -68.34570000
