40
Properties=species:S:1:pos:R:3 #=T CELL(abcABC):=T 1.889726e+02=T 90.00000=T Traj:=T positionsangstrom=T Step:=T 0=T Bead:=T pbc="F F F"
C      -46.11840000     -37.15490000     -71.53860000
C      -44.86420000     -36.88900000     -70.99420000
C      -44.76890000     -36.18900000     -69.77200000
C      -45.88140000     -35.68600000     -69.03870000
C      -47.14740000     -35.93150000     -69.66450000
C      -47.21840000     -36.66770000     -70.80310000
H      -46.24890000     -37.68870000     -72.44300000
H      -43.74700000     -36.09860000     -69.41290000
H      -48.05630000     -35.45510000     -69.24890000
H      -48.17190000     -36.93090000     -71.24720000
C      -45.55050000     -34.95000000     -67.72520000
H      -44.44150000     -34.77450000     -67.70190000
H      -45.74910000     -35.54240000     -66.78350000
C      -43.55600000     -37.21210000     -71.74820000
H      -42.66750000     -37.22870000     -71.05550000
H      -43.63870000     -38.28040000     -72.09850000
S      -46.56590000     -33.40580000     -67.43080000
S      -43.30240000     -36.16830000     -73.22850000
C      -46.66530000     -32.49350000     -69.12240000
H      -47.46300000     -33.04910000     -69.68410000
H      -47.05660000     -31.42560000     -68.81670000
C      -43.75770000     -34.47550000     -72.81190000
H      -43.27480000     -33.77830000     -73.62650000
H      -43.24840000     -34.15650000     -71.90480000
C      -45.25160000     -34.00800000     -72.77090000
H      -45.90570000     -34.62360000     -73.39340000
H      -45.68470000     -34.16580000     -71.77120000
C      -45.22770000     -32.43870000     -69.71940000
H      -45.00480000     -33.38320000     -70.13680000
H      -44.46050000     -32.25830000     -68.94750000
C      -45.14690000     -31.28400000     -70.73350000
C      -45.13820000     -29.95700000     -70.31220000
C      -45.28130000     -31.44120000     -72.19510000
H      -44.89030000     -29.54410000     -69.32590000
C      -45.19860000     -30.24720000     -72.85720000
C      -45.29200000     -32.53920000     -73.11140000
C      -45.44410000     -32.15710000     -74.42060000
S      -45.21450000     -28.85560000     -71.76850000
S      -45.41010000     -30.39450000     -74.61150000
H      -45.62870000     -32.78080000     -75.30650000
