40
Properties=species:S:1:pos:R:3 #=T CELL(abcABC):=T 1.889726e+02=T 90.00000=T Traj:=T positionsangstrom=T Step:=T 0=T Bead:=T pbc="F F F"
C      -46.25120000     -37.47210000     -71.53420000
C      -45.01610000     -36.96080000     -71.18520000
C      -44.98690000     -36.14230000     -70.04040000
C      -46.06660000     -35.80100000     -69.26530000
C      -47.30750000     -36.41470000     -69.62910000
C      -47.40160000     -37.14640000     -70.83370000
H      -46.36380000     -38.09770000     -72.39010000
H      -43.95820000     -35.75240000     -69.73540000
H      -48.29260000     -36.15200000     -69.22200000
H      -48.22300000     -37.76340000     -71.14880000
C      -45.88110000     -35.07150000     -67.98000000
H      -44.78510000     -34.83700000     -67.89240000
H      -46.26760000     -35.68980000     -67.07660000
C      -43.72090000     -37.23160000     -71.93300000
H      -42.76030000     -37.11110000     -71.41120000
H      -43.76810000     -38.24020000     -72.38790000
S      -46.80960000     -33.50190000     -67.75900000
S      -43.78570000     -36.27320000     -73.52680000
C      -46.33460000     -32.47490000     -69.24620000
H      -46.67580000     -32.94250000     -70.20680000
H      -46.83020000     -31.44580000     -69.19720000
C      -43.82380000     -34.47340000     -72.97960000
H      -43.45200000     -33.96050000     -73.95880000
H      -43.08450000     -34.44130000     -72.21360000
C      -45.17020000     -33.91590000     -72.57810000
H      -45.92450000     -34.45380000     -73.16670000
H      -45.55110000     -34.07960000     -71.55570000
C      -44.83460000     -32.17030000     -69.52960000
H      -44.23040000     -33.02080000     -69.88830000
H      -44.41920000     -31.82310000     -68.60130000
C      -44.74920000     -31.04480000     -70.52210000
C      -44.79860000     -29.72640000     -70.23210000
C      -44.94330000     -31.27960000     -71.90400000
H      -44.45370000     -29.40360000     -69.24290000
C      -45.01980000     -30.08270000     -72.58630000
C      -45.11270000     -32.40880000     -72.79020000
C      -45.29450000     -32.01490000     -74.08620000
S      -44.95930000     -28.67850000     -71.57970000
S      -45.26820000     -30.30340000     -74.31550000
H      -45.28710000     -32.76990000     -74.86740000
