40
Properties=species:S:1:pos:R:3 #=T CELL(abcABC):=T 1.889726e+02=T 90.00000=T Traj:=T positionsangstrom=T Step:=T 0=T Bead:=T pbc="F F F"
C      -46.31370000     -37.11230000     -71.59070000
C      -44.99060000     -36.88650000     -71.16000000
C      -44.89350000     -36.30660000     -69.91190000
C      -46.03420000     -36.07080000     -69.02590000
C      -47.32210000     -36.30840000     -69.55210000
C      -47.42630000     -36.89190000     -70.79060000
H      -46.33110000     -37.57290000     -72.61280000
H      -43.97980000     -36.14860000     -69.42080000
H      -48.16520000     -36.15590000     -68.92440000
H      -48.43520000     -37.02040000     -71.19550000
C      -45.83160000     -35.29020000     -67.74570000
H      -44.68570000     -35.15530000     -67.65400000
H      -46.21310000     -35.83410000     -66.83570000
C      -43.74130000     -37.18320000     -71.92460000
H      -42.86940000     -37.14050000     -71.19300000
H      -43.70630000     -38.19100000     -72.38670000
S      -46.74420000     -33.64040000     -67.65410000
S      -43.36610000     -36.04940000     -73.42670000
C      -46.54000000     -32.80710000     -69.28680000
H      -46.95100000     -33.54880000     -70.02640000
H      -47.26130000     -32.00040000     -69.33980000
C      -43.56810000     -34.25540000     -72.90710000
H      -43.28470000     -33.59840000     -73.77850000
H      -42.89120000     -34.04180000     -71.96310000
C      -45.03960000     -33.87930000     -72.58310000
H      -45.73080000     -34.38860000     -73.21110000
H      -45.11770000     -34.03720000     -71.54060000
C      -45.09430000     -32.27490000     -69.56480000
H      -44.52690000     -33.09160000     -70.01970000
H      -44.61290000     -31.94750000     -68.66110000
C      -45.12140000     -31.12940000     -70.59830000
C      -44.93790000     -29.79410000     -70.29390000
C      -45.13610000     -31.28280000     -72.05450000
H      -45.03740000     -29.33510000     -69.32220000
C      -45.19960000     -30.06190000     -72.73460000
C      -45.25930000     -32.42010000     -72.90430000
C      -45.43590000     -32.00220000     -74.23260000
S      -44.81470000     -28.71430000     -71.67710000
S      -45.42300000     -30.30830000     -74.45370000
H      -45.65890000     -32.70550000     -75.02650000
