40
Properties=species:S:1:pos:R:3 #=T CELL(abcABC):=T 1.889726e+02=T 90.00000=T Traj:=T positionsangstrom=T Step:=T 0=T Bead:=T pbc="F F F"
C      -46.83280000     -37.19710000     -71.09650000
C      -45.47760000     -36.84760000     -70.90780000
C      -45.13090000     -35.99220000     -69.79110000
C      -46.04990000     -35.70120000     -68.81930000
C      -47.35210000     -36.17570000     -68.97800000
C      -47.73680000     -36.94410000     -70.06600000
H      -46.99860000     -37.77610000     -71.98140000
H      -44.03280000     -35.72490000     -69.59620000
H      -48.08220000     -35.97330000     -68.24770000
H      -48.80030000     -37.30470000     -70.06210000
C      -45.64990000     -34.98390000     -67.56940000
H      -44.55330000     -35.01570000     -67.71700000
H      -45.95930000     -35.45420000     -66.61130000
C      -44.40440000     -37.33750000     -71.83300000
H      -43.42320000     -37.25370000     -71.37680000
H      -44.63350000     -38.32120000     -72.20940000
S      -46.31620000     -33.25280000     -67.66590000
S      -44.51340000     -36.45700000     -73.48310000
C      -46.33950000     -32.81650000     -69.44610000
H      -47.00480000     -33.49850000     -70.03940000
H      -46.84310000     -31.86200000     -69.35630000
C      -44.05600000     -34.62610000     -73.13250000
H      -43.23840000     -34.36430000     -73.78050000
H      -43.66770000     -34.42560000     -72.09590000
C      -45.30920000     -33.78540000     -73.48550000
H      -45.70990000     -34.17940000     -74.34370000
H      -46.02650000     -34.00690000     -72.70390000
C      -44.87890000     -32.76100000     -70.08480000
H      -44.68620000     -33.62560000     -70.73100000
H      -44.18210000     -32.75890000     -69.17620000
C      -44.71330000     -31.53230000     -70.89810000
C      -44.62090000     -30.32570000     -70.25540000
C      -44.86540000     -31.37010000     -72.30330000
H      -44.53490000     -30.14420000     -69.18560000
C      -44.76930000     -30.05660000     -72.65000000
C      -45.08880000     -32.24780000     -73.48730000
C      -44.96550000     -31.57280000     -74.70070000
S      -44.69270000     -28.98050000     -71.36990000
S      -44.62840000     -29.85170000     -74.39420000
H      -45.12330000     -31.87420000     -75.73460000
