40
Properties=species:S:1:pos:R:3 #=T CELL(abcABC):=T 1.889726e+02=T 90.00000=T Traj:=T positionsangstrom=T Step:=T 0=T Bead:=T pbc="F F F"
C      -46.45340000     -37.34760000     -71.29480000
C      -45.21200000     -36.83290000     -70.97560000
C      -44.94870000     -36.17940000     -69.74110000
C      -45.99490000     -35.88260000     -68.88000000
C      -47.30220000     -36.35960000     -69.15760000
C      -47.45860000     -37.16540000     -70.29340000
H      -46.60300000     -38.10060000     -72.04780000
H      -43.96070000     -35.86630000     -69.46830000
H      -48.06070000     -36.32470000     -68.36830000
H      -48.50840000     -37.51760000     -70.45210000
C      -45.77610000     -35.12200000     -67.56990000
H      -44.76000000     -35.00560000     -67.36260000
H      -46.23090000     -35.63040000     -66.73940000
C      -44.01940000     -37.08300000     -71.90920000
H      -43.11400000     -36.54030000     -71.60180000
H      -43.64560000     -38.14140000     -71.99380000
S      -46.55980000     -33.46990000     -67.56400000
S      -44.32680000     -36.39920000     -73.60380000
C      -46.25580000     -32.76210000     -69.26310000
H      -46.52530000     -33.39020000     -70.10150000
H      -46.91010000     -31.89990000     -69.31300000
C      -44.21540000     -34.63070000     -73.39890000
H      -44.06060000     -34.19160000     -74.42400000
H      -43.38090000     -34.37160000     -72.83210000
C      -45.42300000     -33.80860000     -72.86290000
H      -46.28540000     -34.20310000     -73.44250000
H      -45.65980000     -34.12600000     -71.80480000
C      -44.88340000     -32.23590000     -69.64610000
H      -44.18150000     -33.01050000     -70.06280000
H      -44.30290000     -31.82660000     -68.79840000
C      -44.96080000     -31.09780000     -70.68580000
C      -44.79480000     -29.75980000     -70.36330000
C      -44.88080000     -31.26790000     -72.13230000
H      -44.84300000     -29.32250000     -69.37120000
C      -44.90390000     -30.01670000     -72.79720000
C      -45.16190000     -32.37310000     -73.06310000
C      -44.88490000     -31.97300000     -74.35440000
S      -44.81890000     -28.66220000     -71.67040000
S      -44.75540000     -30.20210000     -74.53940000
H      -45.07150000     -32.48440000     -75.28640000
