40
Properties=species:S:1:pos:R:3 #=T CELL(abcABC):=T 1.889726e+02=T 90.00000=T Traj:=T positionsangstrom=T Step:=T 0=T Bead:=T pbc="F F F"
C      -46.85810000     -37.17080000     -71.12480000
C      -45.49750000     -37.01930000     -70.90710000
C      -45.05110000     -36.22860000     -69.85110000
C      -45.97910000     -35.78730000     -68.89180000
C      -47.33090000     -36.16690000     -68.99130000
C      -47.81370000     -36.79140000     -70.11560000
H      -47.20560000     -37.63710000     -72.06090000
H      -44.01360000     -36.03470000     -69.64950000
H      -48.08160000     -35.90360000     -68.22580000
H      -48.81130000     -36.95960000     -70.45080000
C      -45.56520000     -34.88920000     -67.73470000
H      -44.49330000     -34.63900000     -67.65390000
H      -45.77600000     -35.43320000     -66.81880000
C      -44.54350000     -37.42450000     -71.94630000
H      -43.53810000     -37.27160000     -71.59510000
H      -44.80520000     -38.50860000     -72.12430000
S      -46.50370000     -33.36500000     -67.67560000
S      -44.79260000     -36.52310000     -73.50670000
C      -46.34910000     -32.71760000     -69.43430000
H      -46.99840000     -33.29110000     -70.06410000
H      -46.73490000     -31.70080000     -69.34120000
C      -44.26560000     -34.72710000     -73.33220000
H      -43.61220000     -34.62070000     -74.25700000
H      -43.54970000     -34.67590000     -72.56180000
C      -45.41450000     -33.74960000     -73.32410000
H      -46.12780000     -34.08490000     -74.14470000
H      -45.98990000     -33.94190000     -72.44250000
C      -44.87850000     -32.64410000     -69.93770000
H      -44.54720000     -33.55150000     -70.40070000
H      -44.24780000     -32.50170000     -69.06860000
C      -44.64090000     -31.42950000     -70.76150000
C      -44.44310000     -30.16840000     -70.22140000
C      -44.78670000     -31.34130000     -72.19790000
H      -44.20830000     -29.78030000     -69.20770000
C      -44.50290000     -30.04950000     -72.64190000
C      -45.06030000     -32.20290000     -73.34650000
C      -45.06510000     -31.61230000     -74.59840000
S      -44.25870000     -28.88510000     -71.35130000
S      -44.65540000     -29.85460000     -74.41260000
H      -45.18830000     -32.12530000     -75.56670000
