40
Properties=species:S:1:pos:R:3 #=T CELL(abcABC):=T 1.889726e+02=T 90.00000=T Traj:=T positionsangstrom=T Step:=T 0=T Bead:=T pbc="F F F"
C      -46.85850000     -37.21760000     -71.03430000
C      -45.46340000     -37.02030000     -70.84250000
C      -45.04270000     -36.39410000     -69.67720000
C      -45.95460000     -35.77630000     -68.82620000
C      -47.32870000     -36.01770000     -69.01170000
C      -47.76160000     -36.77090000     -70.05790000
H      -47.12650000     -37.70990000     -71.93220000
H      -43.93100000     -36.34240000     -69.57380000
H      -48.06100000     -35.67080000     -68.29660000
H      -48.87430000     -36.98380000     -70.04350000
C      -45.53920000     -34.90910000     -67.65990000
H      -44.51370000     -34.59800000     -67.53610000
H      -45.89270000     -35.42780000     -66.72990000
C      -44.46940000     -37.35950000     -71.89340000
H      -43.46160000     -37.17690000     -71.55160000
H      -44.28150000     -38.40910000     -72.26230000
S      -46.49460000     -33.25900000     -67.72490000
S      -44.67890000     -36.40770000     -73.58470000
C      -46.40480000     -32.95400000     -69.55590000
H      -46.83320000     -33.80660000     -70.12920000
H      -47.05210000     -32.11650000     -69.83510000
C      -44.13840000     -34.71690000     -73.07130000
H      -43.20730000     -34.45160000     -73.72640000
H      -43.89980000     -34.68800000     -72.04260000
C      -45.27920000     -33.70670000     -73.32950000
H      -45.94190000     -34.01830000     -74.23450000
H      -45.90280000     -33.81300000     -72.43350000
C      -44.96220000     -32.78860000     -70.13090000
H      -44.71950000     -33.59290000     -70.75650000
H      -44.22220000     -32.76060000     -69.27270000
C      -44.68680000     -31.54710000     -70.80150000
C      -44.61070000     -30.31790000     -70.18820000
C      -44.72640000     -31.33490000     -72.25650000
H      -44.64150000     -30.07010000     -69.12870000
C      -44.57160000     -30.03050000     -72.63700000
C      -44.94610000     -32.21630000     -73.44440000
C      -44.89570000     -31.53050000     -74.63120000
S      -44.43250000     -28.91520000     -71.34170000
S      -44.77010000     -29.83010000     -74.42860000
H      -44.93340000     -32.06640000     -75.57940000
