40
Properties=species:S:1:pos:R:3 #=T CELL(abcABC):=T 1.889726e+02=T 90.00000=T Traj:=T positionsangstrom=T Step:=T 0=T Bead:=T pbc="F F F"
C      -46.83080000     -37.35820000     -71.03580000
C      -45.53420000     -36.85820000     -71.00100000
C      -45.15390000     -36.07750000     -69.86050000
C      -46.14090000     -35.80080000     -68.90130000
C      -47.41520000     -36.26950000     -68.94380000
C      -47.80960000     -37.03500000     -70.07380000
H      -47.20430000     -38.02840000     -71.87850000
H      -44.17110000     -35.61870000     -69.93730000
H      -48.11790000     -35.84880000     -68.20600000
H      -48.79600000     -37.43960000     -70.20540000
C      -45.62840000     -34.97180000     -67.70140000
H      -44.58000000     -34.74340000     -67.87540000
H      -45.82090000     -35.55550000     -66.81080000
C      -44.52490000     -37.15800000     -72.10790000
H      -43.47270000     -36.90140000     -71.79420000
H      -44.57350000     -38.21950000     -72.25800000
S      -46.52380000     -33.35410000     -67.58750000
S      -44.84360000     -36.36180000     -73.79840000
C      -46.21120000     -32.43880000     -69.13140000
H      -46.90560000     -32.89360000     -69.88170000
H      -46.62490000     -31.43490000     -68.97630000
C      -44.38320000     -34.62470000     -73.31350000
H      -43.80210000     -34.12110000     -74.01730000
H      -43.80920000     -34.67790000     -72.35370000
C      -45.64400000     -33.81850000     -73.02470000
H      -46.49640000     -33.98240000     -73.67240000
H      -46.00510000     -33.97920000     -72.01270000
C      -44.81670000     -32.54800000     -69.78840000
H      -44.74660000     -33.58430000     -70.26830000
H      -44.01510000     -32.58090000     -68.98740000
C      -44.59780000     -31.43190000     -70.68920000
C      -44.23160000     -30.19000000     -70.22260000
C      -44.85060000     -31.37940000     -72.12580000
H      -43.86590000     -29.98400000     -69.20270000
C      -44.46910000     -30.12090000     -72.73240000
C      -45.19980000     -32.30060000     -73.23040000
C      -45.05910000     -31.71400000     -74.49750000
S      -44.08080000     -28.92080000     -71.54070000
S      -44.57270000     -30.02770000     -74.44640000
H      -45.52190000     -32.19340000     -75.36180000
