40
Properties=species:S:1:pos:R:3 #=T CELL(abcABC):=T 1.889726e+02=T 90.00000=T Traj:=T positionsangstrom=T Step:=T 0=T Bead:=T pbc="F F F"
C      -47.20820000     -37.23510000     -71.12730000
C      -45.91340000     -36.66970000     -71.12180000
C      -45.45340000     -35.96800000     -70.04160000
C      -46.23960000     -35.85890000     -68.89070000
C      -47.54210000     -36.37670000     -68.90480000
C      -47.97460000     -37.18580000     -69.96870000
H      -47.48540000     -37.97290000     -71.92710000
H      -44.50310000     -35.58400000     -69.95820000
H      -48.11680000     -36.37960000     -67.92050000
H      -48.97210000     -37.69430000     -69.94000000
C      -45.69040000     -35.18340000     -67.64160000
H      -44.61670000     -35.29100000     -67.56700000
H      -45.99910000     -35.59790000     -66.73330000
C      -45.01460000     -37.03860000     -72.28920000
H      -43.91040000     -36.80580000     -72.21950000
H      -45.05250000     -38.11370000     -72.52770000
S      -46.11870000     -33.42170000     -67.62970000
S      -45.64770000     -36.19430000     -73.92020000
C      -45.73620000     -32.77570000     -69.32980000
H      -46.24060000     -33.40750000     -70.00950000
H      -46.16090000     -31.72370000     -69.35320000
C      -44.93650000     -34.59830000     -73.71930000
H      -44.83810000     -34.15420000     -74.67820000
H      -43.89580000     -34.81000000     -73.38270000
C      -45.80860000     -33.65480000     -72.88700000
H      -46.87610000     -33.61860000     -73.12370000
H      -45.79190000     -33.87280000     -71.84080000
C      -44.21110000     -32.66420000     -69.68540000
H      -43.92850000     -33.61440000     -70.12750000
H      -43.50820000     -32.50090000     -68.81760000
C      -43.99480000     -31.51880000     -70.70220000
C      -43.29320000     -30.41560000     -70.35600000
C      -44.58680000     -31.36150000     -72.05790000
H      -42.72880000     -30.23410000     -69.44360000
C      -44.32240000     -30.05920000     -72.59950000
C      -45.30190000     -32.16320000     -73.01320000
C      -45.52480000     -31.47660000     -74.17460000
S      -43.30890000     -29.08830000     -71.55520000
S      -44.84570000     -29.87260000     -74.19480000
H      -46.08820000     -31.90860000     -74.92030000
