40
Properties=species:S:1:pos:R:3 #=T CELL(abcABC):=T 1.889726e+02=T 90.00000=T Traj:=T positionsangstrom=T Step:=T 0=T Bead:=T pbc="F F F"
C      -47.50730000     -36.77440000     -71.28030000
C      -46.08680000     -36.62630000     -71.31050000
C      -45.43500000     -36.19640000     -70.11390000
C      -46.22260000     -35.78810000     -69.06750000
C      -47.66900000     -35.75590000     -69.16780000
C      -48.27500000     -36.32440000     -70.23460000
H      -48.04450000     -37.20240000     -72.12810000
H      -44.34120000     -36.21320000     -69.96840000
H      -48.22960000     -35.43620000     -68.30730000
H      -49.30950000     -36.32310000     -70.24800000
C      -45.51810000     -35.30940000     -67.81520000
H      -44.43650000     -35.56510000     -67.97190000
H      -45.70500000     -35.99240000     -66.93080000
C      -45.41930000     -37.27930000     -72.54400000
H      -44.32200000     -37.50010000     -72.42590000
H      -45.86900000     -38.24040000     -72.85560000
S      -45.66490000     -33.52320000     -67.35650000
S      -45.79360000     -36.18480000     -74.05260000
C      -45.54160000     -32.70350000     -68.97060000
H      -46.42320000     -32.84520000     -69.51400000
H      -45.51030000     -31.58220000     -68.79320000
C      -45.00470000     -34.61460000     -73.39330000
H      -44.17300000     -34.14920000     -73.99810000
H      -44.46730000     -34.91240000     -72.47740000
C      -46.06940000     -33.46650000     -73.02000000
H      -46.84260000     -33.48860000     -73.78430000
H      -46.41130000     -33.78080000     -72.06460000
C      -44.30980000     -32.94170000     -69.87720000
H      -44.44910000     -33.81460000     -70.44730000
H      -43.44410000     -33.22110000     -69.26670000
C      -44.04940000     -31.72230000     -70.78180000
C      -43.30620000     -30.72770000     -70.25400000
C      -44.53700000     -31.48150000     -72.06430000
H      -42.99230000     -30.63570000     -69.23580000
C      -44.17620000     -30.24510000     -72.49800000
C      -45.37360000     -32.14200000     -73.06640000
C      -45.43610000     -31.41480000     -74.20850000
S      -43.24260000     -29.39010000     -71.34370000
S      -44.70050000     -29.76210000     -74.08190000
H      -46.15410000     -31.58870000     -75.07600000
