40
Properties=species:S:1:pos:R:3 #=T CELL(abcABC):=T 1.889726e+02=T 90.00000=T Traj:=T positionsangstrom=T Step:=T 0=T Bead:=T pbc="F F F"
C      -47.73600000     -36.67910000     -71.16640000
C      -46.35060000     -36.90980000     -71.42420000
C      -45.37180000     -36.45590000     -70.56340000
C      -45.62030000     -35.98440000     -69.26160000
C      -47.04500000     -35.76220000     -68.99620000
C      -48.01900000     -36.05350000     -69.93030000
H      -48.58410000     -37.15840000     -71.74160000
H      -44.36380000     -36.43540000     -70.90720000
H      -47.42460000     -35.22340000     -68.09180000
H      -48.97720000     -35.82430000     -69.54920000
C      -44.57520000     -35.59650000     -68.24740000
H      -43.55100000     -35.39060000     -68.58510000
H      -44.50940000     -36.37000000     -67.38340000
C      -45.96910000     -37.36200000     -72.80100000
H      -45.05140000     -37.96250000     -72.72210000
H      -46.71800000     -38.05360000     -73.16420000
S      -45.03930000     -33.96580000     -67.38950000
S      -45.88530000     -36.06390000     -74.09290000
C      -45.24040000     -32.74380000     -68.77710000
H      -46.20810000     -32.96690000     -69.23540000
H      -45.28860000     -31.83670000     -68.28500000
C      -45.01360000     -34.65040000     -73.56220000
H      -44.66360000     -34.17700000     -74.45160000
H      -44.16210000     -34.85570000     -72.98670000
C      -45.87660000     -33.62950000     -72.66800000
H      -46.91820000     -33.76820000     -72.95650000
H      -45.82460000     -34.00090000     -71.70420000
C      -44.09150000     -32.72190000     -69.79120000
H      -44.02960000     -33.65570000     -70.30710000
H      -43.14920000     -32.72130000     -69.24360000
C      -44.13430000     -31.48330000     -70.63010000
C      -43.70700000     -30.24700000     -70.13490000
C      -44.77920000     -31.31340000     -71.89480000
H      -43.12310000     -29.98500000     -69.26210000
C      -44.61800000     -30.03810000     -72.45600000
C      -45.42840000     -32.23550000     -72.87810000
C      -45.64830000     -31.56750000     -74.07460000
S      -43.86610000     -28.94580000     -71.35070000
S      -44.95670000     -29.92020000     -74.15350000
H      -46.06840000     -31.93450000     -74.97680000
