40
Properties=species:S:1:pos:R:3 #=T CELL(abcABC):=T 1.889726e+02=T 90.00000=T Traj:=T positionsangstrom=T Step:=T 0=T Bead:=T pbc="F F F"
C      -47.95810000     -35.92030000     -71.49640000
C      -46.67480000     -36.54000000     -71.57840000
C      -45.83140000     -36.41190000     -70.51280000
C      -46.19880000     -35.84120000     -69.29050000
C      -47.56200000     -35.37560000     -69.21190000
C      -48.37480000     -35.31920000     -70.29730000
H      -48.59790000     -35.79610000     -72.36650000
H      -44.87120000     -36.96410000     -70.64250000
H      -47.98920000     -35.03750000     -68.29500000
H      -49.37310000     -34.75420000     -70.32960000
C      -45.26460000     -35.78060000     -68.14300000
H      -44.25540000     -36.08140000     -68.49470000
H      -45.62770000     -36.40710000     -67.31520000
C      -46.27190000     -37.25800000     -72.84050000
H      -45.66100000     -38.15560000     -72.69830000
H      -47.22270000     -37.54360000     -73.36060000
S      -44.97470000     -34.09400000     -67.43800000
S      -45.44300000     -36.19310000     -74.16060000
C      -45.04720000     -33.07420000     -68.89700000
H      -45.91030000     -33.30240000     -69.51040000
H      -45.32580000     -32.03850000     -68.52790000
C      -44.67160000     -34.70890000     -73.40080000
H      -44.32780000     -34.17630000     -74.26600000
H      -43.79430000     -34.88200000     -72.86310000
C      -45.67110000     -33.82260000     -72.56500000
H      -46.68550000     -34.00300000     -72.79220000
H      -45.58560000     -34.11190000     -71.49250000
C      -43.74010000     -32.84350000     -69.71780000
H      -43.48780000     -33.71050000     -70.30480000
H      -42.92220000     -32.67560000     -69.00960000
C      -43.86450000     -31.57060000     -70.59670000
C      -43.23810000     -30.38140000     -70.24290000
C      -44.55540000     -31.43720000     -71.87630000
H      -42.64160000     -30.17540000     -69.28780000
C      -44.41740000     -30.15460000     -72.40000000
C      -45.40720000     -32.34540000     -72.68870000
C      -45.80530000     -31.63090000     -73.79520000
S      -43.50470000     -29.05330000     -71.34060000
S      -45.26430000     -29.95410000     -73.91390000
H      -46.31940000     -31.94380000     -74.74250000
