40
Properties=species:S:1:pos:R:3 #=T CELL(abcABC):=T 1.889726e+02=T 90.00000=T Traj:=T positionsangstrom=T Step:=T 0=T Bead:=T pbc="F F F"
C      -42.82010000     -30.83170000     -68.02680000
C      -43.12790000     -31.98170000     -68.79640000
C      -44.38410000     -32.59580000     -68.62470000
C      -45.36380000     -32.05420000     -67.76420000
C      -44.99550000     -30.94420000     -67.02470000
C      -43.75360000     -30.35560000     -67.13490000
H      -41.90350000     -30.34450000     -68.10200000
H      -44.71920000     -33.49700000     -69.22330000
H      -45.70060000     -30.42880000     -66.44120000
H      -43.55970000     -29.43070000     -66.54840000
C      -46.79830000     -32.47090000     -67.83630000
H      -47.34340000     -31.98720000     -67.06170000
H      -47.00830000     -33.53030000     -67.74720000
C      -41.99090000     -32.57090000     -69.61390000
H      -41.23090000     -31.81420000     -69.75120000
H      -41.45760000     -33.35640000     -68.99740000
S      -47.59850000     -32.02810000     -69.45810000
S      -42.52810000     -33.41170000     -71.11680000
C      -47.70080000     -33.71520000     -70.42030000
H      -46.66450000     -34.09800000     -70.34830000
H      -48.36100000     -34.33080000     -69.93730000
C      -43.39360000     -31.98790000     -71.99090000
H      -42.75630000     -31.84780000     -72.86350000
H      -43.31540000     -31.03230000     -71.41870000
C      -44.84010000     -32.25900000     -72.40330000
H      -45.43130000     -32.30980000     -71.49860000
H      -45.19040000     -31.27130000     -72.77380000
C      -47.98840000     -33.32620000     -71.86630000
H      -47.52760000     -32.38040000     -72.02410000
H      -49.08430000     -33.11080000     -71.95390000
C      -47.47860000     -34.36910000     -72.80490000
C      -48.18310000     -35.52070000     -73.08900000
C      -46.19200000     -34.32460000     -73.47320000
H      -49.19060000     -35.74340000     -72.73460000
C      -45.96170000     -35.38900000     -74.32620000
C      -45.08370000     -33.44840000     -73.33430000
C      -44.01250000     -33.96400000     -74.08160000
S      -47.32760000     -36.48720000     -74.26560000
S      -44.38770000     -35.40890000     -75.01190000
H      -42.97660000     -33.56750000     -74.14860000
