40
Properties=species:S:1:pos:R:3 #=T CELL(abcABC):=T 1.889726e+02=T 90.00000=T Traj:=T positionsangstrom=T Step:=T 0=T Bead:=T pbc="F F F"
C      -47.93860000     -35.94520000     -71.75820000
C      -46.66900000     -36.61520000     -71.65360000
C      -45.95100000     -36.43610000     -70.44810000
C      -46.44260000     -35.70490000     -69.38350000
C      -47.68680000     -35.06360000     -69.49710000
C      -48.41150000     -35.19500000     -70.70460000
H      -48.43580000     -36.03670000     -72.75860000
H      -45.03410000     -36.98100000     -70.23330000
H      -47.97010000     -34.58460000     -68.57900000
H      -49.31240000     -34.75990000     -70.71150000
C      -45.61850000     -35.68920000     -68.15340000
H      -44.67710000     -36.21640000     -68.29410000
H      -46.16810000     -36.05300000     -67.36080000
C      -46.08300000     -37.37050000     -72.78710000
H      -45.27670000     -38.01450000     -72.45900000
H      -46.88270000     -38.05010000     -73.17710000
S      -44.97610000     -34.10760000     -67.44880000
S      -45.43540000     -36.17510000     -74.08920000
C      -44.94160000     -32.83310000     -68.81780000
H      -45.89120000     -32.98850000     -69.32560000
H      -44.86500000     -31.82570000     -68.31430000
C      -44.85600000     -34.77700000     -73.07370000
H      -44.05580000     -34.21310000     -73.61410000
H      -44.27790000     -35.24970000     -72.18760000
C      -45.91490000     -33.72730000     -72.56400000
H      -46.80410000     -33.81550000     -73.22690000
H      -46.29610000     -33.89080000     -71.56380000
C      -43.72100000     -32.93520000     -69.69360000
H      -43.76010000     -33.86540000     -70.28750000
H      -42.83920000     -32.94340000     -68.96730000
C      -43.70260000     -31.71870000     -70.65010000
C      -43.08590000     -30.55260000     -70.24190000
C      -44.41580000     -31.56630000     -71.89390000
H      -42.67560000     -30.43810000     -69.26640000
C      -44.34310000     -30.22100000     -72.32270000
C      -45.38720000     -32.27120000     -72.71100000
C      -45.83660000     -31.57070000     -73.78190000
S      -43.36640000     -29.16290000     -71.31570000
S      -45.20560000     -29.92700000     -73.82830000
H      -46.46510000     -32.00600000     -74.44460000
