40
Properties=species:S:1:pos:R:3 #=T CELL(abcABC):=T 1.889726e+02=T 90.00000=T Traj:=T positionsangstrom=T Step:=T 0=T Bead:=T pbc="F F F"
C      -47.93940000     -36.10360000     -71.60010000
C      -46.65600000     -36.76970000     -71.51050000
C      -45.91920000     -36.57720000     -70.33790000
C      -46.35790000     -35.73530000     -69.27190000
C      -47.61180000     -35.04920000     -69.45130000
C      -48.42150000     -35.33280000     -70.56050000
H      -48.44470000     -36.38390000     -72.55050000
H      -44.83700000     -36.94440000     -70.25390000
H      -47.93910000     -34.36420000     -68.70990000
H      -49.31210000     -34.77010000     -70.69140000
C      -45.55660000     -35.69550000     -67.97100000
H      -44.63550000     -36.39070000     -67.93020000
H      -46.24680000     -36.26690000     -67.23740000
C      -46.01610000     -37.40270000     -72.73240000
H      -45.09970000     -37.96200000     -72.49920000
H      -46.81250000     -38.02540000     -73.20340000
S      -45.09100000     -33.98110000     -67.44250000
S      -45.42930000     -36.14300000     -73.96510000
C      -45.26010000     -32.95080000     -68.89820000
H      -46.18420000     -33.12650000     -69.38390000
H      -45.42990000     -31.92940000     -68.53440000
C      -44.77710000     -34.57870000     -73.17200000
H      -44.08380000     -34.19770000     -73.94800000
H      -44.18790000     -34.89090000     -72.36600000
C      -45.91870000     -33.58020000     -72.65840000
H      -46.93290000     -33.84730000     -72.95890000
H      -46.07330000     -33.84050000     -71.56540000
C      -44.06220000     -33.04710000     -69.84420000
H      -44.18910000     -33.90830000     -70.45890000
H      -43.12240000     -33.10790000     -69.26950000
C      -43.90920000     -31.76170000     -70.65930000
C      -43.23260000     -30.65300000     -70.15180000
C      -44.49750000     -31.46910000     -71.98080000
H      -42.71000000     -30.55400000     -69.19720000
C      -44.28110000     -30.15970000     -72.39000000
C      -45.41360000     -32.15620000     -72.86280000
C      -45.70870000     -31.43880000     -73.97310000
S      -43.20860000     -29.29490000     -71.30130000
S      -45.02240000     -29.84110000     -73.99770000
H      -46.47250000     -31.80550000     -74.54780000
