40
Properties=species:S:1:pos:R:3 #=T CELL(abcABC):=T 1.889726e+02=T 90.00000=T Traj:=T positionsangstrom=T Step:=T 0=T Bead:=T pbc="F F F"
C      -42.52190000     -31.00340000     -67.95580000
C      -42.96330000     -32.06910000     -68.72900000
C      -44.24540000     -32.56040000     -68.75300000
C      -45.16480000     -31.90530000     -67.89210000
C      -44.71250000     -30.91130000     -66.97120000
C      -43.39910000     -30.47960000     -66.96530000
H      -41.43390000     -30.70720000     -67.99380000
H      -44.57550000     -33.39100000     -69.42340000
H      -45.32730000     -30.57010000     -66.18910000
H      -43.02020000     -29.84120000     -66.20890000
C      -46.60900000     -32.38050000     -67.84430000
H      -47.07670000     -31.91210000     -66.97460000
H      -46.57530000     -33.45920000     -67.69170000
C      -41.88370000     -32.75030000     -69.63170000
H      -41.07150000     -32.07450000     -69.89870000
H      -41.39610000     -33.56420000     -69.03320000
S      -47.72090000     -31.96480000     -69.25930000
S      -42.46240000     -33.62140000     -71.15160000
C      -47.62640000     -33.39160000     -70.40530000
H      -46.59660000     -33.84430000     -70.43390000
H      -48.32770000     -34.10800000     -70.09210000
C      -43.17070000     -32.23760000     -72.11880000
H      -42.56550000     -32.13130000     -73.08510000
H      -42.99220000     -31.30490000     -71.53480000
C      -44.67700000     -32.41460000     -72.44410000
H      -45.30120000     -32.44930000     -71.56760000
H      -44.93690000     -31.57270000     -73.10490000
C      -47.96410000     -32.96080000     -71.87590000
H      -47.51880000     -32.00030000     -72.05900000
H      -49.05270000     -32.66490000     -72.02440000
C      -47.53590000     -34.13340000     -72.84940000
C      -48.50620000     -34.97200000     -73.39600000
C      -46.23260000     -34.41180000     -73.26940000
H      -49.54670000     -34.99840000     -73.20160000
C      -46.18370000     -35.52260000     -74.11960000
C      -44.98260000     -33.69480000     -73.20580000
C      -44.10460000     -34.17360000     -74.16390000
S      -47.75080000     -36.10690000     -74.54630000
S      -44.59860000     -35.68010000     -74.86620000
H      -43.01680000     -33.92820000     -74.23200000
