40
Properties=species:S:1:pos:R:3 #=T CELL(abcABC):=T 1.889726e+02=T 90.00000=T Traj:=T positionsangstrom=T Step:=T 0=T Bead:=T pbc="F F F"
C      -48.21060000     -31.67190000     -71.92220000
C      -48.57450000     -32.99000000     -71.71640000
C      -48.16260000     -33.88780000     -72.67740000
C      -47.55020000     -33.42080000     -73.84090000
C      -47.16730000     -32.07270000     -73.99420000
C      -47.47830000     -31.15860000     -72.98570000
H      -48.40820000     -31.10330000     -70.99180000
H      -48.29120000     -34.94630000     -72.61760000
H      -46.54660000     -31.79740000     -74.87620000
H      -47.19230000     -30.13690000     -72.92410000
C      -47.20050000     -34.51000000     -74.81770000
H      -46.89530000     -34.06570000     -75.79220000
H      -48.03460000     -35.14730000     -74.95960000
C      -49.18150000     -33.56440000     -70.44490000
H      -49.68210000     -32.81740000     -69.83190000
H      -49.85760000     -34.34320000     -70.72020000
S      -45.75310000     -35.58460000     -74.20670000
S      -47.96120000     -34.26770000     -69.25830000
C      -44.64170000     -34.36660000     -73.38380000
H      -43.97390000     -33.84640000     -74.04990000
H      -45.23880000     -33.45860000     -73.05590000
C      -46.34410000     -34.57110000     -70.20860000
H      -46.10590000     -33.72780000     -70.95940000
H      -46.46030000     -35.51270000     -70.78530000
C      -45.28150000     -34.74270000     -69.16270000
H      -45.73580000     -34.91490000     -68.17720000
H      -44.75760000     -35.73690000     -69.40180000
C      -43.89170000     -34.91990000     -72.15510000
H      -43.17840000     -35.70620000     -72.39900000
H      -44.58250000     -35.21470000     -71.37610000
C      -43.07640000     -33.83600000     -71.50870000
C      -42.02300000     -33.26350000     -72.10760000
C      -43.40870000     -33.25650000     -70.23350000
H      -41.62150000     -33.45920000     -73.13190000
C      -42.56010000     -32.19310000     -69.99230000
C      -44.28020000     -33.54810000     -69.09050000
C      -44.13190000     -32.69210000     -68.02290000
S      -41.31010000     -31.91780000     -71.19820000
S      -42.85580000     -31.58640000     -68.39980000
H      -44.50230000     -32.78150000     -66.99240000
