40
Properties=species:S:1:pos:R:3 #=T CELL(abcABC):=T 1.889726e+02=T 90.00000=T Traj:=T positionsangstrom=T Step:=T 0=T Bead:=T pbc="F F F"
C      -44.26270000     -37.16700000     -69.40090000
C      -45.42640000     -36.38300000     -69.32640000
C      -46.18520000     -36.32360000     -70.50560000
C      -45.77050000     -36.89610000     -71.73460000
C      -44.67200000     -37.77150000     -71.75010000
C      -43.93180000     -37.81780000     -70.57010000
H      -43.72010000     -37.36640000     -68.57210000
H      -47.12720000     -35.75030000     -70.37390000
H      -44.52730000     -38.50390000     -72.62850000
H      -43.07380000     -38.54640000     -70.57900000
C      -46.72100000     -36.66760000     -72.82810000
H      -47.47300000     -37.44230000     -72.79130000
H      -46.16070000     -36.79350000     -73.78630000
C      -45.66450000     -35.67690000     -67.96230000
H      -46.43630000     -36.31400000     -67.44920000
H      -44.78910000     -35.65120000     -67.41920000
S      -47.72210000     -35.11840000     -72.87360000
S      -46.54890000     -34.04760000     -67.97730000
C      -46.52120000     -33.80140000     -73.55670000
H      -45.49600000     -34.02480000     -73.26630000
H      -46.51570000     -33.88080000     -74.70230000
C      -45.29080000     -32.93990000     -68.69350000
H      -44.28480000     -32.93230000     -68.16600000
H      -45.58260000     -31.91430000     -68.57880000
C      -44.97280000     -33.20600000     -70.32110000
H      -44.34610000     -34.12570000     -70.50660000
H      -45.91230000     -33.44030000     -70.80200000
C      -46.95400000     -32.37660000     -73.03760000
H      -47.25200000     -32.47950000     -71.98080000
H      -47.86460000     -32.01610000     -73.54000000
C      -45.90280000     -31.26930000     -72.98800000
C      -45.85990000     -30.31830000     -73.97470000
C      -44.77460000     -31.20880000     -72.07220000
H      -46.67560000     -30.23020000     -74.72150000
C      -44.00140000     -30.04760000     -72.33320000
C      -44.31190000     -31.92900000     -70.86640000
C      -43.23930000     -31.35280000     -70.30460000
S      -44.48250000     -29.22390000     -73.80570000
S      -42.73980000     -29.83770000     -71.09520000
H      -42.57020000     -31.67260000     -69.60130000
