40
Properties=species:S:1:pos:R:3 #=T CELL(abcABC):=T 1.889726e+02=T 90.00000=T Traj:=T positionsangstrom=T Step:=T 0=T Bead:=T pbc="F F F"
C      -48.87720000     -31.74490000     -71.86610000
C      -48.70770000     -33.13770000     -71.68210000
C      -48.04880000     -33.84520000     -72.64940000
C      -47.57230000     -33.21920000     -73.79890000
C      -47.65940000     -31.81500000     -73.88810000
C      -48.45510000     -31.05470000     -73.01670000
H      -49.31700000     -31.12150000     -71.05660000
H      -48.00150000     -34.92560000     -72.55170000
H      -47.13920000     -31.45510000     -74.73610000
H      -48.47470000     -29.94600000     -73.05270000
C      -46.88150000     -33.91210000     -74.96000000
H      -46.46570000     -33.11070000     -75.60760000
H      -47.58620000     -34.47920000     -75.56270000
C      -48.98710000     -33.58540000     -70.27190000
H      -49.74150000     -32.90080000     -69.82220000
H      -49.21670000     -34.61480000     -70.09120000
S      -45.61690000     -35.15030000     -74.50260000
S      -47.43010000     -33.44640000     -69.33190000
C      -44.57150000     -34.17790000     -73.33420000
H      -43.96700000     -33.41370000     -73.86330000
H      -45.14070000     -33.51130000     -72.68800000
C      -46.59720000     -35.02380000     -69.87400000
H      -46.46190000     -34.99950000     -70.98800000
H      -47.15660000     -35.91410000     -69.67940000
C      -45.23140000     -35.06890000     -69.04150000
H      -45.60570000     -35.04430000     -68.00680000
H      -44.68710000     -36.02800000     -69.22550000
C      -43.79300000     -35.18260000     -72.37460000
H      -43.09860000     -35.82530000     -72.91760000
H      -44.49950000     -35.73050000     -71.82680000
C      -42.90750000     -34.24580000     -71.53830000
C      -41.87310000     -33.46180000     -72.06660000
C      -43.31510000     -33.64120000     -70.29110000
H      -41.39000000     -33.67240000     -73.03730000
C      -42.57010000     -32.52690000     -69.94490000
C      -44.29450000     -33.92720000     -69.24410000
C      -44.21480000     -33.05280000     -68.15090000
S      -41.29160000     -32.15220000     -70.95930000
S      -42.96560000     -31.84360000     -68.40360000
H      -44.84450000     -33.00300000     -67.28730000
