40
Properties=species:S:1:pos:R:3 #=T CELL(abcABC):=T 1.889726e+02=T 90.00000=T Traj:=T positionsangstrom=T Step:=T 0=T Bead:=T pbc="F F F"
C      -48.32500000     -31.46000000     -71.75280000
C      -48.72490000     -32.83790000     -71.63640000
C      -48.44700000     -33.71470000     -72.70630000
C      -47.75140000     -33.24150000     -73.82850000
C      -47.44720000     -31.85860000     -74.01430000
C      -47.68430000     -31.01710000     -72.93160000
H      -48.60140000     -30.59680000     -71.07140000
H      -48.58940000     -34.80390000     -72.62480000
H      -46.88600000     -31.55490000     -74.86890000
H      -47.42310000     -29.97430000     -72.96790000
C      -47.32730000     -34.15170000     -74.90690000
H      -47.22550000     -33.59940000     -75.86500000
H      -48.08400000     -34.89190000     -75.15530000
C      -49.20160000     -33.36630000     -70.28590000
H      -49.76500000     -32.57280000     -69.77420000
H      -49.63300000     -34.36310000     -70.40080000
S      -45.78800000     -35.19750000     -74.52110000
S      -47.60250000     -33.32140000     -69.20600000
C      -44.90270000     -33.97170000     -73.45490000
H      -44.41440000     -33.20970000     -74.06650000
H      -45.58680000     -33.42330000     -72.80910000
C      -46.57210000     -34.45330000     -70.22200000
H      -46.13060000     -33.84980000     -71.02350000
H      -47.19440000     -35.11030000     -70.78810000
C      -45.35040000     -35.17460000     -69.53720000
H      -45.64700000     -35.81610000     -68.65830000
H      -45.00600000     -35.88030000     -70.39190000
C      -43.86220000     -34.70210000     -72.66300000
H      -43.21690000     -35.07900000     -73.47990000
H      -44.37780000     -35.51330000     -72.13380000
C      -43.17920000     -33.77890000     -71.67990000
C      -42.19790000     -32.92470000     -72.18980000
C      -43.34970000     -33.65670000     -70.23610000
H      -42.05270000     -32.88060000     -73.21370000
C      -42.36650000     -32.85230000     -69.71660000
C      -44.21960000     -34.19010000     -69.24730000
C      -43.88300000     -33.77350000     -67.99760000
S      -41.33130000     -32.05920000     -70.93820000
S      -42.45260000     -32.65640000     -68.01700000
H      -44.29870000     -33.99830000     -67.01890000
