40
Properties=species:S:1:pos:R:3 #=T CELL(abcABC):=T 1.889726e+02=T 90.00000=T Traj:=T positionsangstrom=T Step:=T 0=T Bead:=T pbc="F F F"
C      -48.92940000     -31.57090000     -71.92740000
C      -48.69100000     -32.92990000     -71.75180000
C      -48.09610000     -33.63920000     -72.75240000
C      -47.62540000     -33.11780000     -73.94190000
C      -47.88490000     -31.74580000     -74.07750000
C      -48.53390000     -30.96420000     -73.09940000
H      -49.54040000     -31.01060000     -71.23040000
H      -47.89260000     -34.70640000     -72.57350000
H      -47.51210000     -31.16940000     -74.96940000
H      -48.69250000     -29.87690000     -73.14910000
C      -47.04300000     -33.97910000     -75.00530000
H      -46.65750000     -33.37990000     -75.84980000
H      -47.76720000     -34.61520000     -75.54390000
C      -48.90220000     -33.60700000     -70.41440000
H      -49.80940000     -33.11610000     -69.97390000
H      -49.04250000     -34.70750000     -70.59540000
S      -45.66930000     -35.18730000     -74.42960000
S      -47.30140000     -33.39800000     -69.41840000
C      -44.63470000     -34.15890000     -73.32740000
H      -43.95600000     -33.60130000     -73.97710000
H      -45.32330000     -33.46090000     -72.75530000
C      -46.42940000     -34.96870000     -69.90000000
H      -46.44630000     -35.05520000     -70.99290000
H      -47.05420000     -35.84940000     -69.50030000
C      -45.07820000     -35.24640000     -69.21670000
H      -45.23600000     -35.63480000     -68.23090000
H      -44.53830000     -36.06380000     -69.64900000
C      -43.79140000     -35.08510000     -72.38720000
H      -43.07870000     -35.68490000     -73.03720000
H      -44.51680000     -35.77020000     -71.84950000
C      -42.88900000     -34.26400000     -71.46150000
C      -41.94080000     -33.42110000     -72.00370000
C      -43.18710000     -33.72250000     -70.12150000
H      -41.43010000     -33.54110000     -72.99470000
C      -42.45890000     -32.62830000     -69.72020000
C      -44.19510000     -34.04530000     -69.16990000
C      -44.20560000     -33.21720000     -68.05810000
S      -41.27510000     -32.20430000     -70.93180000
S      -43.05870000     -31.89080000     -68.22550000
H      -44.77920000     -33.37050000     -67.15950000
