40
Properties=species:S:1:pos:R:3 #=T CELL(abcABC):=T 1.889726e+02=T 90.00000=T Traj:=T positionsangstrom=T Step:=T 0=T Bead:=T pbc="F F F"
C      -43.96660000     -35.05340000     -70.73590000
C      -43.08540000     -34.17410000     -71.33130000
C      -43.08210000     -34.10440000     -72.72820000
C      -43.95490000     -34.88410000     -73.47870000
C      -44.81330000     -35.80290000     -72.85150000
C      -44.86680000     -35.88890000     -71.46150000
H      -43.98770000     -35.14650000     -69.60100000
H      -42.22330000     -33.58520000     -73.23400000
H      -45.40370000     -36.36580000     -73.55510000
H      -45.39130000     -36.72430000     -71.04440000
C      -43.98750000     -34.86960000     -74.94940000
H      -44.40380000     -35.80040000     -75.33310000
H      -43.07550000     -34.63450000     -75.46260000
C      -42.12310000     -33.48070000     -70.44730000
H      -41.72140000     -34.00520000     -69.58450000
H      -41.27110000     -33.22230000     -71.12860000
S      -45.16090000     -33.42590000     -75.53290000
S      -42.71500000     -31.83940000     -69.77450000
C      -46.52230000     -33.41880000     -74.24830000
H      -47.33390000     -32.93310000     -74.73350000
H      -46.87370000     -34.48740000     -74.11530000
C      -43.77220000     -31.12180000     -71.10420000
H      -44.03770000     -32.01170000     -71.78140000
H      -43.25970000     -30.32340000     -71.61030000
C      -45.06420000     -30.56740000     -70.60720000
H      -44.87550000     -29.68210000     -70.00040000
H      -45.64690000     -30.34460000     -71.53700000
C      -46.21480000     -32.75020000     -72.92240000
H      -46.28090000     -31.72180000     -73.02350000
H      -45.19560000     -32.75500000     -72.58260000
C      -46.96280000     -33.16340000     -71.67980000
C      -47.71480000     -34.30610000     -71.60690000
C      -46.76000000     -32.56960000     -70.36260000
H      -48.09380000     -35.00140000     -72.32000000
C      -47.40900000     -33.32810000     -69.35860000
C      -45.82180000     -31.63090000     -69.77420000
C      -45.78400000     -31.68170000     -68.44530000
S      -48.09510000     -34.75080000     -69.93010000
S      -46.97300000     -32.81780000     -67.71990000
H      -45.05660000     -31.21100000     -67.80190000
