40
Properties=species:S:1:pos:R:3 #=T CELL(abcABC):=T 1.889726e+02=T 90.00000=T Traj:=T positionsangstrom=T Step:=T 0=T Bead:=T pbc="F F F"
C      -43.84360000     -35.17570000     -70.64870000
C      -42.90710000     -34.33700000     -71.32870000
C      -42.96290000     -34.36850000     -72.71140000
C      -43.97090000     -35.02690000     -73.43180000
C      -44.79630000     -35.91790000     -72.74470000
C      -44.67880000     -36.04610000     -71.35940000
H      -43.77090000     -35.18700000     -69.59710000
H      -42.36420000     -33.70610000     -73.38270000
H      -45.58680000     -36.37910000     -73.32480000
H      -45.42730000     -36.61280000     -70.72800000
C      -44.07010000     -34.82870000     -74.90030000
H      -44.32700000     -35.84130000     -75.33670000
H      -43.07430000     -34.50030000     -75.23650000
C      -41.87520000     -33.42050000     -70.62050000
H      -41.42340000     -34.04270000     -69.85480000
H      -41.13610000     -33.05240000     -71.28400000
S      -45.18810000     -33.43730000     -75.41210000
S      -42.68680000     -32.02490000     -69.71200000
C      -46.44700000     -33.51040000     -74.10360000
H      -47.41290000     -33.37600000     -74.56650000
H      -46.42550000     -34.53110000     -73.64500000
C      -43.65220000     -30.98980000     -70.98580000
H      -43.81340000     -31.66040000     -71.96590000
H      -43.03160000     -30.15580000     -71.32670000
C      -44.97710000     -30.49480000     -70.41320000
H      -44.82110000     -29.75140000     -69.65990000
H      -45.45610000     -29.96260000     -71.18910000
C      -46.34430000     -32.44880000     -72.95410000
H      -46.81250000     -31.46050000     -73.21090000
H      -45.25590000     -32.35920000     -72.85010000
C      -46.94970000     -33.04200000     -71.74610000
C      -47.95550000     -33.94460000     -71.79960000
C      -46.51130000     -32.69340000     -70.43270000
H      -48.53500000     -34.25910000     -72.61780000
C      -47.21270000     -33.49280000     -69.46400000
C      -45.87470000     -31.50210000     -69.73690000
C      -46.03120000     -31.53190000     -68.42240000
S      -48.40190000     -34.52270000     -70.15630000
S      -46.97620000     -32.93260000     -67.81680000
H      -45.69550000     -30.74810000     -67.67650000
