40
Properties=species:S:1:pos:R:3 #=T CELL(abcABC):=T 1.889726e+02=T 90.00000=T Traj:=T positionsangstrom=T Step:=T 0=T Bead:=T pbc="F F F"
C      -43.34940000     -35.53180000     -70.81340000
C      -42.66550000     -34.45510000     -71.35230000
C      -42.75860000     -34.13170000     -72.72870000
C      -43.67990000     -34.84450000     -73.56750000
C      -44.42910000     -35.94080000     -73.01210000
C      -44.29820000     -36.21070000     -71.60880000
H      -43.40570000     -35.69980000     -69.73810000
H      -42.19930000     -33.27380000     -73.03730000
H      -45.10560000     -36.51790000     -73.69770000
H      -44.90870000     -36.98170000     -71.14750000
C      -43.91150000     -34.57100000     -74.99670000
H      -44.46950000     -35.35370000     -75.47580000
H      -42.95200000     -34.50620000     -75.54220000
C      -41.65030000     -33.71570000     -70.48570000
H      -41.25450000     -34.40990000     -69.74060000
H      -40.83250000     -33.42170000     -71.06460000
S      -44.94440000     -32.96500000     -75.18720000
S      -42.36560000     -32.32600000     -69.51240000
C      -46.29100000     -33.34050000     -74.08820000
H      -47.24170000     -33.34020000     -74.62440000
H      -46.26810000     -34.35500000     -73.73690000
C      -43.62280000     -31.57130000     -70.69990000
H      -43.94070000     -32.34720000     -71.34350000
H      -43.03750000     -30.85270000     -71.27820000
C      -44.87490000     -30.88320000     -70.08790000
H      -44.62680000     -30.14620000     -69.33360000
H      -45.19870000     -30.30670000     -70.99140000
C      -46.22450000     -32.39680000     -72.91660000
H      -46.51950000     -31.38090000     -73.31280000
H      -45.16990000     -32.36670000     -72.58350000
C      -47.16340000     -32.77060000     -71.77560000
C      -48.22730000     -33.56660000     -71.95640000
C      -46.92940000     -32.47500000     -70.35860000
H      -48.48630000     -34.16650000     -72.81500000
C      -47.85860000     -33.20400000     -69.58480000
C      -45.93770000     -31.84990000     -69.58990000
C      -45.97050000     -32.18250000     -68.27400000
S      -49.09640000     -33.98180000     -70.48260000
S      -47.40800000     -33.20380000     -67.89880000
H      -45.40830000     -31.82270000     -67.39180000
