40
Properties=species:S:1:pos:R:3 #=T CELL(abcABC):=T 1.889726e+02=T 90.00000=T Traj:=T positionsangstrom=T Step:=T 0=T Bead:=T pbc="F F F"
C      -43.38680000     -35.56850000     -70.70170000
C      -42.72090000     -34.50690000     -71.28450000
C      -42.86600000     -34.16110000     -72.62040000
C      -43.68990000     -34.95280000     -73.42190000
C      -44.39180000     -36.08840000     -72.91960000
C      -44.12940000     -36.39170000     -71.56230000
H      -43.06470000     -35.81420000     -69.71670000
H      -42.32720000     -33.36110000     -73.05400000
H      -45.06360000     -36.66280000     -73.53150000
H      -44.50210000     -37.38400000     -71.18340000
C      -43.94850000     -34.56670000     -74.90830000
H      -44.29290000     -35.44080000     -75.48180000
H      -42.95470000     -34.37220000     -75.41160000
C      -41.67290000     -33.70220000     -70.46820000
H      -41.15360000     -34.38870000     -69.74830000
H      -40.94970000     -33.24340000     -71.16030000
S      -44.91630000     -33.14670000     -75.35910000
S      -42.39520000     -32.24680000     -69.54920000
C      -46.43450000     -33.12520000     -74.22040000
H      -47.29270000     -32.92920000     -74.94220000
H      -46.52260000     -34.13950000     -73.87470000
C      -43.50680000     -31.53100000     -70.75090000
H      -43.85600000     -32.32040000     -71.47370000
H      -43.00260000     -30.73360000     -71.38300000
C      -44.80760000     -30.87170000     -70.16250000
H      -44.60450000     -30.36020000     -69.23600000
H      -45.37490000     -30.30520000     -70.92210000
C      -46.40020000     -32.14750000     -73.01350000
H      -46.84930000     -31.19690000     -73.21160000
H      -45.34110000     -31.96020000     -72.77880000
C      -47.19030000     -32.72090000     -71.80890000
C      -48.32450000     -33.48360000     -71.96610000
C      -46.84090000     -32.60250000     -70.38780000
H      -48.77300000     -33.71210000     -72.90700000
C      -47.70180000     -33.34170000     -69.55600000
C      -45.75430000     -32.01530000     -69.64960000
C      -46.00640000     -32.14200000     -68.29690000
S      -49.02470000     -34.06540000     -70.37800000
S      -47.49610000     -32.94840000     -67.84930000
H      -45.35630000     -31.81590000     -67.45520000
