40
Properties=species:S:1:pos:R:3 #=T CELL(abcABC):=T 1.889726e+02=T 90.00000=T Traj:=T positionsangstrom=T Step:=T 0=T Bead:=T pbc="F F F"
C      -43.77450000     -35.65790000     -70.87090000
C      -42.93680000     -34.60290000     -71.26990000
C      -42.95450000     -34.09370000     -72.61680000
C      -43.84250000     -34.68710000     -73.56630000
C      -44.66940000     -35.71390000     -73.09820000
C      -44.60680000     -36.28870000     -71.80650000
H      -43.70900000     -35.92380000     -69.81870000
H      -42.43760000     -33.17830000     -72.88570000
H      -45.32240000     -36.20080000     -73.79020000
H      -45.09500000     -37.17940000     -71.64870000
C      -43.89910000     -34.23170000     -74.95770000
H      -44.51990000     -34.76450000     -75.74510000
H      -42.95500000     -34.05030000     -75.38600000
C      -41.99540000     -34.01610000     -70.30490000
H      -41.68560000     -34.73290000     -69.61490000
H      -41.15150000     -33.63420000     -70.95990000
S      -44.57340000     -32.48940000     -75.20020000
S      -42.70620000     -32.61420000     -69.28980000
C      -46.09740000     -32.68860000     -74.26760000
H      -46.82540000     -32.07920000     -74.71690000
H      -46.55960000     -33.71360000     -74.27530000
C      -43.55720000     -31.47850000     -70.46830000
H      -43.65800000     -32.02760000     -71.38930000
H      -42.80110000     -30.69320000     -70.66370000
C      -44.85910000     -30.91830000     -69.89160000
H      -44.55580000     -30.39050000     -68.97540000
H      -45.24450000     -30.09860000     -70.54660000
C      -45.93540000     -32.22580000     -72.80880000
H      -46.02420000     -31.13110000     -72.70350000
H      -44.88040000     -32.56280000     -72.53590000
C      -46.86480000     -32.87920000     -71.81290000
C      -47.78830000     -33.86920000     -72.14970000
C      -46.77060000     -32.67550000     -70.38760000
H      -48.05650000     -34.10000000     -73.17690000
C      -47.66000000     -33.43960000     -69.66320000
C      -45.94030000     -31.89420000     -69.53280000
C      -46.24440000     -32.04020000     -68.17110000
S      -48.70040000     -34.42420000     -70.75200000
S      -47.61520000     -33.14510000     -67.95600000
H      -45.91660000     -31.41230000     -67.30950000
