40
Properties=species:S:1:pos:R:3 #=T CELL(abcABC):=T 1.889726e+02=T 90.00000=T Traj:=T positionsangstrom=T Step:=T 0=T Bead:=T pbc="F F F"
C      -48.62060000     -31.20120000     -71.36160000
C      -48.54070000     -32.53720000     -71.91240000
C      -47.85680000     -32.66190000     -73.14970000
C      -47.21220000     -31.55250000     -73.75920000
C      -47.37590000     -30.31210000     -73.16170000
C      -48.15480000     -30.12990000     -72.06940000
H      -49.07130000     -30.94920000     -70.36010000
H      -47.63460000     -33.60130000     -73.61400000
H      -46.93900000     -29.41560000     -73.62120000
H      -48.30260000     -29.11440000     -71.71760000
C      -46.35370000     -31.71960000     -74.99650000
H      -45.80940000     -30.78460000     -75.34280000
H      -46.97190000     -32.18620000     -75.81190000
C      -48.96510000     -33.79690000     -71.11850000
H      -49.80230000     -33.55250000     -70.51530000
H      -49.20500000     -34.58880000     -71.82860000
S      -45.16140000     -33.12660000     -74.90320000
S      -47.59760000     -34.24250000     -69.91990000
C      -44.14770000     -32.78390000     -73.40780000
H      -43.43610000     -31.97380000     -73.49640000
H      -44.84780000     -32.45180000     -72.69390000
C      -46.47130000     -34.96730000     -71.21620000
H      -45.75160000     -34.15460000     -71.51300000
H      -47.10950000     -35.30870000     -72.03730000
C      -45.62530000     -36.07730000     -70.69150000
H      -46.32580000     -36.71370000     -70.09920000
H      -45.26800000     -36.63520000     -71.49660000
C      -43.44080000     -34.00680000     -72.94770000
H      -42.60890000     -34.08680000     -73.58500000
H      -44.06150000     -34.92910000     -73.08580000
C      -43.04390000     -33.83250000     -71.52130000
C      -42.08770000     -32.91680000     -71.26790000
C      -43.48360000     -34.47960000     -70.27810000
H      -41.54840000     -32.14430000     -71.93560000
C      -42.76640000     -34.00470000     -69.16010000
C      -44.55670000     -35.44170000     -69.81560000
C      -44.59790000     -35.61470000     -68.44680000
S      -41.72640000     -32.73340000     -69.55070000
S      -43.38020000     -34.55140000     -67.69480000
H      -45.20850000     -36.18260000     -67.88660000
