40
Properties=species:S:1:pos:R:3 #=T CELL(abcABC):=T 1.889726e+02=T 90.00000=T Traj:=T positionsangstrom=T Step:=T 0=T Bead:=T pbc="F F F"
C      -48.25290000     -31.01590000     -71.04800000
C      -48.25150000     -32.23730000     -71.79370000
C      -47.64740000     -32.19160000     -73.09150000
C      -47.00860000     -31.06570000     -73.60470000
C      -46.93060000     -29.93210000     -72.77260000
C      -47.62030000     -29.89170000     -71.57480000
H      -48.70230000     -30.99960000     -70.05710000
H      -47.67620000     -33.14850000     -73.65180000
H      -46.43180000     -29.00810000     -73.17600000
H      -47.39300000     -29.03120000     -70.90730000
C      -46.12850000     -31.10180000     -74.82350000
H      -45.61790000     -30.15320000     -74.86500000
H      -46.68970000     -31.08340000     -75.82860000
C      -48.92720000     -33.53970000     -71.41370000
H      -49.76170000     -33.50510000     -70.77690000
H      -49.27020000     -34.02240000     -72.33880000
S      -44.99530000     -32.54550000     -74.81750000
S      -47.76740000     -34.64510000     -70.50740000
C      -44.10040000     -32.34530000     -73.16900000
H      -43.34930000     -31.55900000     -73.29970000
H      -44.77100000     -31.93800000     -72.42630000
C      -46.57930000     -35.02680000     -71.87630000
H      -46.10480000     -34.14730000     -72.24220000
H      -47.18460000     -35.46570000     -72.67160000
C      -45.62010000     -36.05910000     -71.30840000
H      -46.10800000     -36.95930000     -70.93110000
H      -45.00820000     -36.41730000     -72.16030000
C      -43.50640000     -33.73250000     -72.76640000
H      -42.53730000     -33.79970000     -73.37200000
H      -44.11760000     -34.58230000     -73.06500000
C      -43.19960000     -33.69490000     -71.26190000
C      -42.13540000     -32.94720000     -70.81640000
C      -43.78280000     -34.57160000     -70.27180000
H      -41.57300000     -32.27500000     -71.42710000
C      -43.02290000     -34.48890000     -69.09010000
C      -44.81870000     -35.56440000     -70.18960000
C      -44.87700000     -36.05060000     -68.86740000
S      -41.91220000     -33.08550000     -69.12970000
S      -43.58910000     -35.46610000     -67.78230000
H      -45.55750000     -36.79390000     -68.55460000
