40
Properties=species:S:1:pos:R:3 #=T CELL(abcABC):=T 1.889726e+02=T 90.00000=T Traj:=T positionsangstrom=T Step:=T 0=T Bead:=T pbc="F F F"
C      -47.82680000     -31.25650000     -70.57550000
C      -48.01650000     -32.19400000     -71.56740000
C      -47.38280000     -32.08110000     -72.83370000
C      -46.73650000     -30.90380000     -73.18040000
C      -46.62020000     -29.92070000     -72.23810000
C      -47.12620000     -30.05900000     -70.92570000
H      -48.22550000     -31.51520000     -69.58240000
H      -47.66090000     -32.87330000     -73.55340000
H      -46.02860000     -29.04440000     -72.48870000
H      -46.85840000     -29.37820000     -70.15030000
C      -46.06310000     -30.69200000     -74.55490000
H      -45.45130000     -29.82370000     -74.56310000
H      -46.76070000     -30.59360000     -75.42240000
C      -48.79750000     -33.42280000     -71.33560000
H      -49.67620000     -33.17410000     -70.71800000
H      -49.24850000     -33.85390000     -72.24730000
S      -44.93520000     -32.15210000     -74.86690000
S      -47.78970000     -34.71270000     -70.50570000
C      -44.17010000     -32.29980000     -73.15600000
H      -43.47980000     -31.50090000     -73.08650000
H      -44.96170000     -32.14130000     -72.43540000
C      -46.59310000     -34.94620000     -71.89860000
H      -45.96700000     -34.02090000     -72.00600000
H      -47.18570000     -35.08210000     -72.83260000
C      -45.61620000     -36.16750000     -71.78820000
H      -46.13760000     -37.13610000     -71.63270000
H      -45.05890000     -36.26550000     -72.76270000
C      -43.41570000     -33.57180000     -72.95530000
H      -42.45460000     -33.49300000     -73.47820000
H      -44.03780000     -34.42230000     -73.27830000
C      -43.12130000     -33.80360000     -71.43900000
C      -42.17470000     -33.03860000     -70.84860000
C      -43.71670000     -34.75940000     -70.52950000
H      -41.63710000     -32.14840000     -71.25230000
C      -43.34940000     -34.50800000     -69.22900000
C      -44.69840000     -35.86600000     -70.62460000
C      -45.06320000     -36.28160000     -69.36520000
S      -42.08660000     -33.29330000     -69.11280000
S      -44.21140000     -35.50790000     -68.04850000
H      -45.77260000     -37.08640000     -69.08990000
