40
Properties=species:S:1:pos:R:3 #=T CELL(abcABC):=T 1.889726e+02=T 90.00000=T Traj:=T positionsangstrom=T Step:=T 0=T Bead:=T pbc="F F F"
C      -47.92450000     -31.25130000     -70.36680000
C      -48.11000000     -31.89700000     -71.63290000
C      -47.38400000     -31.43520000     -72.74300000
C      -46.47720000     -30.35940000     -72.49930000
C      -46.45690000     -29.61120000     -71.30740000
C      -47.11240000     -30.12340000     -70.20980000
H      -48.48710000     -31.64440000     -69.48440000
H      -47.24440000     -31.82290000     -73.71670000
H      -45.78830000     -28.74510000     -71.13200000
H      -47.01090000     -29.61500000     -69.22050000
C      -45.66650000     -29.98600000     -73.67650000
H      -44.98580000     -29.15080000     -73.45850000
H      -46.23470000     -29.61530000     -74.46180000
C      -49.11180000     -32.99500000     -71.88010000
H      -50.11260000     -32.84740000     -71.35290000
H      -49.35280000     -33.11420000     -72.88990000
S      -44.81170000     -31.41160000     -74.36640000
S      -48.36420000     -34.60220000     -71.18570000
C      -44.07610000     -32.06280000     -72.77480000
H      -43.38040000     -31.26680000     -72.42780000
H      -44.84580000     -32.02910000     -71.99450000
C      -46.87470000     -34.62720000     -72.22370000
H      -46.27520000     -33.76540000     -71.98900000
H      -47.25430000     -34.53930000     -73.22040000
C      -45.95690000     -35.88180000     -72.09630000
H      -46.59310000     -36.76970000     -72.07250000
H      -45.38760000     -35.87830000     -73.06830000
C      -43.40810000     -33.40850000     -72.89520000
H      -42.55910000     -33.44610000     -73.57030000
H      -44.11730000     -34.06450000     -73.40600000
C      -43.01120000     -33.91930000     -71.46820000
C      -42.03860000     -33.38310000     -70.70630000
C      -43.80060000     -34.95230000     -70.71590000
H      -41.34550000     -32.65810000     -71.17630000
C      -43.23180000     -35.16590000     -69.46340000
C      -44.96080000     -35.83490000     -70.89440000
C      -45.13040000     -36.66200000     -69.80010000
S      -41.77840000     -34.17030000     -69.13310000
S      -43.96530000     -36.48080000     -68.55290000
H      -46.00060000     -37.20900000     -69.68460000
