40
Properties=species:S:1:pos:R:3 #=T CELL(abcABC):=T 1.889726e+02=T 90.00000=T Traj:=T positionsangstrom=T Step:=T 0=T Bead:=T pbc="F F F"
C      -47.65690000     -31.38550000     -70.39940000
C      -48.19850000     -31.98070000     -71.54650000
C      -47.75280000     -31.60940000     -72.85910000
C      -46.78880000     -30.59220000     -72.88820000
C      -46.35540000     -29.84610000     -71.73830000
C      -46.75690000     -30.33430000     -70.43870000
H      -47.87270000     -31.83280000     -69.44800000
H      -48.00590000     -32.09900000     -73.79060000
H      -45.51170000     -29.12820000     -71.85590000
H      -46.39670000     -29.85510000     -69.53870000
C      -46.11140000     -30.39900000     -74.24050000
H      -45.71050000     -29.43680000     -74.21070000
H      -46.79810000     -30.61870000     -75.08020000
C      -49.12810000     -33.16290000     -71.52640000
H      -49.99820000     -33.12070000     -70.91710000
H      -49.48160000     -33.32090000     -72.58940000
S      -44.78200000     -31.66890000     -74.52760000
S      -48.13430000     -34.72280000     -71.01410000
C      -44.16580000     -32.02030000     -72.82850000
H      -43.56000000     -31.19890000     -72.48510000
H      -45.09050000     -32.09310000     -72.24930000
C      -46.72220000     -34.62850000     -72.23890000
H      -46.19690000     -33.73100000     -71.97360000
H      -47.04690000     -34.50440000     -73.25940000
C      -45.82380000     -35.85720000     -72.01610000
H      -46.45510000     -36.75270000     -71.97870000
H      -45.16660000     -35.94830000     -72.93870000
C      -43.35080000     -33.33460000     -72.87170000
H      -42.41480000     -33.16530000     -73.45350000
H      -43.87260000     -34.11620000     -73.38850000
C      -42.99990000     -33.78370000     -71.41920000
C      -41.96360000     -33.28300000     -70.69050000
C      -43.81320000     -34.75700000     -70.65330000
H      -41.30340000     -32.45450000     -70.93930000
C      -43.21050000     -34.99310000     -69.39310000
C      -44.89230000     -35.70920000     -70.82670000
C      -45.18100000     -36.35420000     -69.66430000
S      -41.81290000     -33.96820000     -69.03030000
S      -44.14320000     -36.05320000     -68.29140000
H      -45.93880000     -37.15900000     -69.60030000
