40
Properties=species:S:1:pos:R:3 #=T CELL(abcABC):=T 1.889726e+02=T 90.00000=T Traj:=T positionsangstrom=T Step:=T 0=T Bead:=T pbc="F F F"
C      -44.60590000     -36.62770000     -74.44380000
C      -44.15820000     -35.76760000     -73.40400000
C      -44.22830000     -34.37660000     -73.62660000
C      -44.88510000     -33.85790000     -74.76740000
C      -45.34510000     -34.74850000     -75.73400000
C      -45.27240000     -36.10800000     -75.55440000
H      -44.45010000     -37.66530000     -74.35500000
H      -43.94380000     -33.66470000     -72.85150000
H      -45.82810000     -34.32830000     -76.62900000
H      -45.63810000     -36.80160000     -76.32370000
C      -44.95460000     -32.37060000     -74.99140000
H      -45.79470000     -32.16650000     -75.58230000
H      -44.05270000     -31.96860000     -75.48740000
C      -43.62040000     -36.37700000     -72.11770000
H      -43.63580000     -37.46590000     -72.33130000
H      -42.49560000     -36.13550000     -72.00370000
S      -45.26500000     -31.37810000     -73.46290000
S      -44.41280000     -35.89570000     -70.52510000
C      -47.02480000     -31.79510000     -73.09670000
H      -47.67690000     -31.00300000     -73.47880000
H      -47.14220000     -32.69710000     -73.67210000
C      -46.28440000     -35.65820000     -70.86540000
H      -46.77760000     -36.63030000     -71.06680000
H      -46.37750000     -34.98140000     -71.70630000
C      -46.91270000     -35.01670000     -69.64550000
H      -47.88410000     -34.62390000     -69.96120000
H      -47.10850000     -35.77100000     -68.81800000
C      -47.27920000     -32.19110000     -71.57390000
H      -47.28890000     -33.27560000     -71.51720000
H      -48.30420000     -32.10580000     -71.43440000
C      -46.32460000     -31.66600000     -70.54400000
C      -45.80800000     -30.37680000     -70.49250000
C      -45.99090000     -32.46510000     -69.33930000
H      -46.11880000     -29.58040000     -71.17750000
C      -45.31120000     -31.69890000     -68.40420000
C      -46.15680000     -33.90200000     -68.91950000
C      -45.52890000     -34.06130000     -67.73080000
S      -44.91130000     -30.10140000     -68.95740000
S      -44.75210000     -32.60990000     -67.10700000
H      -45.45690000     -35.02100000     -67.18190000
