40
Properties=species:S:1:pos:R:3 #=T CELL(abcABC):=T 1.889726e+02=T 90.00000=T Traj:=T positionsangstrom=T Step:=T 0=T Bead:=T pbc="F F F"
C      -47.84980000     -31.24550000     -70.32640000
C      -48.17750000     -32.06470000     -71.42350000
C      -47.72080000     -31.82140000     -72.71960000
C      -46.76700000     -30.87910000     -72.96170000
C      -46.47300000     -29.94230000     -71.88260000
C      -46.95000000     -30.18390000     -70.59380000
H      -48.13270000     -31.60960000     -69.31070000
H      -48.07340000     -32.44880000     -73.50900000
H      -45.85630000     -29.10020000     -72.16700000
H      -46.57120000     -29.57140000     -69.76280000
C      -46.25780000     -30.74260000     -74.39320000
H      -45.98230000     -29.73910000     -74.72980000
H      -47.00680000     -31.09760000     -75.04530000
C      -48.99880000     -33.27270000     -71.10390000
H      -49.53590000     -33.09400000     -70.12940000
H      -49.73520000     -33.56000000     -71.85580000
S      -44.73750000     -31.86410000     -74.65700000
S      -47.90760000     -34.74520000     -70.84420000
C      -44.07480000     -32.15940000     -73.00500000
H      -43.40380000     -31.34140000     -72.71010000
H      -44.82280000     -32.23510000     -72.25230000
C      -46.94740000     -35.08420000     -72.39930000
H      -46.65630000     -34.08190000     -72.78560000
H      -47.60240000     -35.55820000     -73.11630000
C      -45.73760000     -35.99640000     -72.05600000
H      -46.13500000     -37.03940000     -71.83160000
H      -45.06450000     -36.10140000     -72.96880000
C      -43.28130000     -33.49880000     -72.94630000
H      -42.27250000     -33.43440000     -73.45840000
H      -43.74940000     -34.36440000     -73.46070000
C      -42.93200000     -33.78650000     -71.46000000
C      -41.91310000     -33.20470000     -70.77430000
C      -43.75570000     -34.65040000     -70.67050000
H      -41.11370000     -32.58350000     -71.14440000
C      -43.26390000     -34.71270000     -69.32860000
C      -44.93000000     -35.51020000     -70.82770000
C      -45.15780000     -36.10490000     -69.59440000
S      -41.95140000     -33.65410000     -69.04930000
S      -44.12800000     -35.73700000     -68.22840000
H      -46.04170000     -36.82080000     -69.43740000
