40
Properties=species:S:1:pos:R:3 #=T CELL(abcABC):=T 1.889726e+02=T 90.00000=T Traj:=T positionsangstrom=T Step:=T 0=T Bead:=T pbc="F F F"
C      -48.45690000     -30.82910000     -70.41530000
C      -48.20850000     -31.52210000     -71.60330000
C      -47.23710000     -31.06910000     -72.49890000
C      -46.46960000     -29.94460000     -72.19300000
C      -46.71340000     -29.23130000     -71.00480000
C      -47.73400000     -29.65390000     -70.14050000
H      -49.34830000     -31.14630000     -69.80880000
H      -47.08460000     -31.54780000     -73.51270000
H      -46.02900000     -28.38590000     -70.78160000
H      -47.95240000     -28.95420000     -69.36230000
C      -45.34480000     -29.54280000     -73.09930000
H      -44.63420000     -28.89670000     -72.64870000
H      -45.65220000     -29.06770000     -74.02520000
C      -49.04950000     -32.73860000     -71.88340000
H      -49.96190000     -32.70210000     -71.17400000
H      -49.41160000     -32.66910000     -72.89170000
S      -44.39980000     -31.12740000     -73.66500000
S      -48.20730000     -34.32690000     -71.50640000
C      -43.62900000     -32.00520000     -72.24980000
H      -42.83720000     -31.45240000     -71.69670000
H      -44.38790000     -32.12410000     -71.45180000
C      -46.71600000     -34.32680000     -72.59220000
H      -46.06930000     -33.49460000     -72.27770000
H      -47.11610000     -34.22290000     -73.63270000
C      -45.93080000     -35.59730000     -72.39830000
H      -46.58050000     -36.51090000     -72.51070000
H      -45.24340000     -35.74140000     -73.29240000
C      -43.23770000     -33.38330000     -72.77130000
H      -42.33070000     -33.27960000     -73.33240000
H      -44.00720000     -33.75910000     -73.45820000
C      -42.90000000     -34.35860000     -71.54440000
C      -41.64140000     -34.49110000     -70.94690000
C      -43.88060000     -35.15170000     -70.85730000
H      -40.73200000     -33.89630000     -71.20610000
C      -43.34160000     -35.69980000     -69.73550000
C      -45.18460000     -35.69280000     -71.07710000
C      -45.63120000     -36.49760000     -70.06340000
S      -41.64010000     -35.35440000     -69.41750000
S      -44.49050000     -36.63840000     -68.79370000
H      -46.54200000     -37.13800000     -69.99520000
