40
Properties=species:S:1:pos:R:3 #=T CELL(abcABC):=T 1.889726e+02=T 90.00000=T Traj:=T positionsangstrom=T Step:=T 0=T Bead:=T pbc="F F F"
C      -48.59670000     -30.90420000     -70.54360000
C      -48.38710000     -31.65280000     -71.72300000
C      -47.37370000     -31.27120000     -72.62170000
C      -46.53160000     -30.20110000     -72.37710000
C      -46.71290000     -29.44610000     -71.20650000
C      -47.70610000     -29.84620000     -70.29740000
H      -49.35400000     -31.09030000     -69.82430000
H      -47.22910000     -31.92360000     -73.44250000
H      -46.13370000     -28.57630000     -71.05830000
H      -47.86880000     -29.20320000     -69.40560000
C      -45.50910000     -29.69550000     -73.28940000
H      -44.97770000     -28.80900000     -72.91530000
H      -45.96500000     -29.40260000     -74.24900000
C      -49.18100000     -32.90650000     -71.99740000
H      -50.21540000     -32.84950000     -71.64120000
H      -49.31110000     -33.21100000     -73.12010000
S      -44.29530000     -30.98600000     -73.90570000
S      -48.32310000     -34.40710000     -71.18190000
C      -43.86200000     -31.94320000     -72.36110000
H      -43.26570000     -31.32560000     -71.60400000
H      -44.80810000     -32.03920000     -71.83650000
C      -47.01250000     -34.59820000     -72.52530000
H      -46.50540000     -33.61390000     -72.65040000
H      -47.50130000     -34.94840000     -73.43930000
C      -45.97650000     -35.68150000     -72.22270000
H      -46.52640000     -36.64770000     -72.31710000
H      -45.22320000     -35.62990000     -73.01500000
C      -43.17370000     -33.28380000     -72.63720000
H      -42.33500000     -33.10190000     -73.25090000
H      -43.76030000     -33.84870000     -73.34380000
C      -42.91750000     -34.08990000     -71.40640000
C      -41.66500000     -33.91180000     -70.75350000
C      -43.82330000     -35.02760000     -70.77170000
H      -40.80180000     -33.35990000     -71.09000000
C      -43.23090000     -35.50740000     -69.59910000
C      -45.14130000     -35.63930000     -70.96250000
C      -45.45400000     -36.62050000     -70.01350000
S      -41.52270000     -34.98790000     -69.30800000
S      -44.17050000     -36.82580000     -68.86710000
H      -46.39900000     -37.20350000     -69.87840000
