40
Properties=species:S:1:pos:R:3 #=T CELL(abcABC):=T 1.889726e+02=T 90.00000=T Traj:=T positionsangstrom=T Step:=T 0=T Bead:=T pbc="F F F"
C      -48.54470000     -30.77900000     -70.46840000
C      -48.22430000     -31.44760000     -71.66890000
C      -46.97990000     -31.16030000     -72.34960000
C      -46.08340000     -30.21760000     -71.78430000
C      -46.31040000     -29.65030000     -70.52050000
C      -47.57990000     -29.88470000     -69.92940000
H      -49.43940000     -31.01740000     -69.96550000
H      -46.75870000     -31.52210000     -73.34440000
H      -45.57530000     -28.96010000     -70.07260000
H      -47.77510000     -29.54200000     -68.87130000
C      -44.90240000     -29.72130000     -72.55870000
H      -44.15290000     -29.36090000     -71.87880000
H      -45.17070000     -28.88410000     -73.16720000
C      -49.16760000     -32.56190000     -72.08480000
H      -50.05760000     -32.44800000     -71.56190000
H      -49.31170000     -32.66310000     -73.15170000
S      -44.09150000     -30.98770000     -73.66630000
S      -48.38240000     -34.14400000     -71.59230000
C      -43.39710000     -32.13460000     -72.43070000
H      -42.50180000     -31.68560000     -72.14470000
H      -44.15570000     -32.31390000     -71.70440000
C      -46.86230000     -34.20610000     -72.63050000
H      -46.24450000     -33.34990000     -72.30390000
H      -47.12970000     -33.93050000     -73.66050000
C      -46.13810000     -35.54190000     -72.53120000
H      -46.86390000     -36.41640000     -72.66070000
H      -45.45690000     -35.55290000     -73.44150000
C      -43.05900000     -33.56560000     -72.97760000
H      -42.14420000     -33.51160000     -73.63230000
H      -43.84660000     -33.96510000     -73.61270000
C      -42.91860000     -34.46950000     -71.69460000
C      -41.92280000     -34.22420000     -70.75430000
C      -43.92940000     -35.27850000     -71.02530000
H      -41.00960000     -33.69280000     -70.99940000
C      -43.53220000     -35.72620000     -69.71900000
C      -45.24780000     -35.75490000     -71.31820000
C      -45.72390000     -36.55600000     -70.34640000
S      -41.98700000     -35.09060000     -69.28750000
S      -44.62400000     -36.76830000     -68.95790000
H      -46.61170000     -37.06400000     -70.38630000
