40
Properties=species:S:1:pos:R:3 #=T CELL(abcABC):=T 1.889726e+02=T 90.00000=T Traj:=T positionsangstrom=T Step:=T 0=T Bead:=T pbc="F F F"
C      -48.19910000     -31.07710000     -70.43050000
C      -48.27320000     -31.73950000     -71.67240000
C      -47.39360000     -31.27630000     -72.65970000
C      -46.50140000     -30.22170000     -72.37170000
C      -46.55380000     -29.46620000     -71.15800000
C      -47.46610000     -29.92240000     -70.24980000
H      -48.81770000     -31.39520000     -69.56460000
H      -47.29190000     -31.86210000     -73.61970000
H      -45.88430000     -28.59490000     -71.02820000
H      -47.42780000     -29.38130000     -69.31860000
C      -45.53580000     -29.85540000     -73.49600000
H      -44.78620000     -29.11320000     -73.18450000
H      -46.24660000     -29.41570000     -74.26250000
C      -49.05770000     -33.03290000     -71.79310000
H      -50.00830000     -32.83750000     -71.17380000
H      -49.32550000     -33.20560000     -72.86360000
S      -44.53100000     -31.26260000     -74.28390000
S      -48.29990000     -34.62760000     -71.21570000
C      -43.89690000     -31.96140000     -72.68570000
H      -42.98110000     -31.44640000     -72.47670000
H      -44.64950000     -31.82050000     -71.92280000
C      -46.67860000     -34.44010000     -71.98870000
H      -46.06310000     -33.68570000     -71.50130000
H      -46.81660000     -34.01340000     -73.02750000
C      -45.93450000     -35.75780000     -72.17180000
H      -46.62320000     -36.60270000     -72.18080000
H      -45.33010000     -35.77820000     -73.06300000
C      -43.53990000     -33.43610000     -72.81890000
H      -42.73670000     -33.48530000     -73.61460000
H      -44.48680000     -33.96270000     -73.05460000
C      -43.09040000     -34.07720000     -71.48770000
C      -42.07520000     -33.52470000     -70.76630000
C      -43.84870000     -35.10060000     -70.75860000
H      -41.58660000     -32.58760000     -70.98190000
C      -43.23980000     -35.36780000     -69.58880000
C      -44.99520000     -35.94840000     -70.98530000
C      -45.27870000     -36.81080000     -69.93690000
S      -41.80040000     -34.38290000     -69.22980000
S      -43.97850000     -36.63740000     -68.67930000
H      -45.92650000     -37.61500000     -70.04430000
