40
Properties=species:S:1:pos:R:3 #=T CELL(abcABC):=T 1.889726e+02=T 90.00000=T Traj:=T positionsangstrom=T Step:=T 0=T Bead:=T pbc="F F F"
C      -46.74000000     -30.24760000     -69.68890000
C      -45.41330000     -30.06010000     -70.12140000
C      -45.20720000     -30.06140000     -71.53770000
C      -46.25860000     -30.18590000     -72.44560000
C      -47.54270000     -30.40900000     -71.94920000
C      -47.78790000     -30.29760000     -70.56320000
H      -46.94800000     -30.36540000     -68.64770000
H      -44.20090000     -29.98070000     -72.01650000
H      -48.39120000     -30.52880000     -72.60010000
H      -48.82660000     -30.14780000     -70.11620000
C      -45.81540000     -30.24890000     -73.91520000
H      -44.60670000     -30.18060000     -73.87470000
H      -46.32260000     -29.43040000     -74.51070000
C      -44.34070000     -30.02060000     -69.08930000
H      -43.35320000     -29.77150000     -69.50310000
H      -44.55760000     -29.28220000     -68.38900000
S      -46.23720000     -31.90260000     -74.82790000
S      -44.35250000     -31.58640000     -68.13500000
C      -46.00230000     -33.21490000     -73.49630000
H      -46.57300000     -32.97440000     -72.68070000
H      -46.34760000     -34.05940000     -74.05690000
C      -44.13530000     -32.89190000     -69.43020000
H      -43.40450000     -33.59390000     -68.99220000
H      -43.72610000     -32.48660000     -70.30980000
C      -45.49460000     -33.56500000     -69.66530000
H      -46.05810000     -33.54000000     -68.79840000
H      -45.95820000     -32.93310000     -70.40560000
C      -44.60170000     -33.47270000     -73.03680000
H      -44.29120000     -32.79770000     -72.27040000
H      -43.91610000     -33.41630000     -73.86650000
C      -44.39540000     -34.95070000     -72.53470000
C      -43.93470000     -35.96300000     -73.39720000
C      -44.80180000     -35.53020000     -71.27370000
H      -43.44860000     -35.86310000     -74.37520000
C      -44.70580000     -36.93700000     -71.24560000
C      -45.36630000     -35.01420000     -70.07490000
C      -45.66300000     -35.99790000     -69.17320000
S      -44.15100000     -37.59940000     -72.67160000
S      -45.43540000     -37.60060000     -69.83200000
H      -46.17250000     -35.91140000     -68.21000000
