40
Properties=species:S:1:pos:R:3 #=T CELL(abcABC):=T 1.889726e+02=T 90.00000=T Traj:=T positionsangstrom=T Step:=T 0=T Bead:=T pbc="F F F"
C      -44.18110000     -35.31360000     -70.70690000
C      -43.03370000     -34.59440000     -70.41950000
C      -42.42290000     -33.84980000     -71.40720000
C      -42.87730000     -33.76070000     -72.71570000
C      -44.05220000     -34.54410000     -73.00860000
C      -44.60750000     -35.39940000     -72.05030000
H      -44.83250000     -35.79930000     -70.06050000
H      -41.48780000     -33.32880000     -71.18700000
H      -44.35090000     -34.54110000     -73.97600000
H      -45.33520000     -36.12820000     -72.41250000
C      -42.19200000     -32.89180000     -73.74730000
H      -42.20150000     -33.33360000     -74.72230000
H      -41.08750000     -32.83020000     -73.50090000
C      -42.57840000     -34.36740000     -69.00990000
H      -42.44640000     -35.37590000     -68.53950000
H      -41.60060000     -33.75580000     -68.95280000
S      -42.96110000     -31.18350000     -73.61380000
S      -44.00280000     -33.61100000     -68.14200000
C      -44.71620000     -31.50120000     -73.99650000
H      -44.98020000     -30.61600000     -74.50210000
H      -44.85170000     -32.39560000     -74.60740000
C      -44.29040000     -32.07710000     -69.13260000
H      -43.79650000     -32.27650000     -70.10940000
H      -43.74360000     -31.20580000     -68.73140000
C      -45.78830000     -31.80760000     -69.16570000
H      -45.96960000     -31.63630000     -68.11910000
H      -46.14360000     -30.91630000     -69.69990000
C      -45.56180000     -31.43800000     -72.62830000
H      -45.93700000     -30.40930000     -72.68590000
H      -44.87790000     -31.47890000     -71.76070000
C      -46.67650000     -32.46530000     -72.41920000
C      -47.50430000     -32.94980000     -73.44270000
C      -47.09140000     -32.99410000     -71.14970000
H      -47.47300000     -32.52070000     -74.49380000
C      -48.16290000     -33.88210000     -71.27780000
C      -46.64900000     -32.93060000     -69.72950000
C      -47.26330000     -33.89850000     -68.94900000
S      -48.68070000     -34.15230000     -72.88670000
S      -48.32280000     -34.91820000     -69.88380000
H      -47.34530000     -33.99760000     -67.85360000
