40
Properties=species:S:1:pos:R:3 #=T CELL(abcABC):=T 1.889726e+02=T 90.00000=T Traj:=T positionsangstrom=T Step:=T 0=T Bead:=T pbc="F F F"
C      -46.24230000     -35.27730000     -67.72700000
C      -44.99450000     -35.16930000     -68.45920000
C      -44.45490000     -33.88210000     -68.63720000
C      -45.04880000     -32.74450000     -68.14830000
C      -46.30450000     -32.84880000     -67.44310000
C      -46.84880000     -34.14530000     -67.22520000
H      -46.51190000     -36.30180000     -67.58560000
H      -43.52880000     -33.72720000     -69.09260000
H      -46.82430000     -32.00620000     -67.07120000
H      -47.73890000     -34.17560000     -66.57970000
C      -44.47720000     -31.37340000     -68.29320000
H      -44.24180000     -31.06140000     -67.28340000
H      -45.09050000     -30.59470000     -68.74930000
C      -44.43690000     -36.42430000     -68.99910000
H      -43.42850000     -36.25060000     -69.45330000
H      -44.26110000     -37.11480000     -68.19140000
S      -42.82520000     -31.08870000     -69.09210000
S      -45.47870000     -37.13960000     -70.35780000
C      -43.25270000     -31.09900000     -70.88770000
H      -43.51160000     -30.07540000     -71.06190000
H      -42.38730000     -31.24760000     -71.53860000
C      -45.60360000     -35.91610000     -71.70540000
H      -46.04250000     -36.52710000     -72.48180000
H      -44.56700000     -35.55870000     -71.82870000
C      -46.54870000     -34.65790000     -71.50120000
H      -47.48960000     -35.09220000     -71.17170000
H      -46.21360000     -34.10500000     -70.64640000
C      -44.33870000     -31.99800000     -71.34540000
H      -45.32300000     -31.90980000     -70.89530000
H      -44.10380000     -33.02700000     -71.15070000
C      -44.64790000     -32.04740000     -72.88740000
C      -44.03210000     -31.26340000     -73.85120000
C      -45.72900000     -32.84280000     -73.40600000
H      -43.17240000     -30.65610000     -73.71640000
C      -45.99420000     -32.57370000     -74.69890000
C      -46.67830000     -33.90270000     -72.85510000
C      -47.60640000     -34.23070000     -73.80240000
S      -44.92290000     -31.33970000     -75.39590000
S      -47.44830000     -33.27350000     -75.32620000
H      -48.32080000     -35.04280000     -73.71270000
