40
Properties=species:S:1:pos:R:3 #=T CELL(abcABC):=T 1.889726e+02=T 90.00000=T Traj:=T positionsangstrom=T Step:=T 0=T Bead:=T pbc="F F F"
C      -46.40200000     -35.28160000     -67.79710000
C      -45.10470000     -35.12320000     -68.33700000
C      -44.51180000     -33.88880000     -68.32020000
C      -45.16180000     -32.75300000     -67.91420000
C      -46.48220000     -32.89410000     -67.32820000
C      -47.04660000     -34.15270000     -67.27510000
H      -47.00160000     -36.22050000     -67.83680000
H      -43.50140000     -33.83030000     -68.77950000
H      -46.94230000     -31.97820000     -67.00430000
H      -48.12490000     -34.19640000     -66.96550000
C      -44.51980000     -31.41010000     -68.10260000
H      -44.54490000     -30.90010000     -67.10000000
H      -45.32770000     -30.87480000     -68.61660000
C      -44.44620000     -36.31790000     -69.10200000
H      -43.51610000     -36.05170000     -69.67770000
H      -44.04420000     -37.04310000     -68.37890000
S      -42.93260000     -31.26220000     -69.07680000
S      -45.56400000     -37.01730000     -70.43790000
C      -43.36600000     -31.01090000     -70.82620000
H      -43.81170000     -29.95380000     -70.89940000
H      -42.32230000     -30.83400000     -71.30960000
C      -45.39460000     -35.89780000     -71.83950000
H      -45.74140000     -36.49530000     -72.70580000
H      -44.34390000     -35.67480000     -72.01190000
C      -46.21220000     -34.69340000     -71.58500000
H      -47.23580000     -34.98260000     -71.20940000
H      -45.77970000     -34.11990000     -70.79580000
C      -44.31740000     -32.07210000     -71.44790000
H      -45.18700000     -32.04530000     -70.78100000
H      -43.78940000     -33.04320000     -71.32370000
C      -44.62840000     -31.90350000     -72.89560000
C      -44.24570000     -30.96570000     -73.82500000
C      -45.59270000     -32.86520000     -73.42400000
H      -43.43990000     -30.32730000     -73.61580000
C      -45.88840000     -32.59230000     -74.74480000
C      -46.44150000     -33.98090000     -72.92050000
C      -47.38650000     -34.33050000     -73.86290000
S      -44.94560000     -31.24290000     -75.37100000
S      -47.26640000     -33.44240000     -75.38900000
H      -48.12070000     -35.11170000     -73.80440000
