40
Properties=species:S:1:pos:R:3 #=T CELL(abcABC):=T 1.889726e+02=T 90.00000=T Traj:=T positionsangstrom=T Step:=T 0=T Bead:=T pbc="F F F"
C      -44.16840000     -35.49200000     -70.86170000
C      -43.08560000     -34.70750000     -70.43600000
C      -42.37570000     -33.94650000     -71.38700000
C      -42.83830000     -33.75090000     -72.68720000
C      -43.93460000     -34.57590000     -73.06490000
C      -44.50310000     -35.52540000     -72.17190000
H      -44.72370000     -36.09500000     -70.11950000
H      -41.51830000     -33.35280000     -71.12060000
H      -44.39790000     -34.49010000     -74.01310000
H      -45.36070000     -36.14140000     -72.59100000
C      -42.24430000     -32.84500000     -73.79950000
H      -42.48530000     -33.09390000     -74.85150000
H      -41.19190000     -32.58850000     -73.67240000
C      -42.81500000     -34.66950000     -68.88510000
H      -42.83060000     -35.70220000     -68.45800000
H      -41.77290000     -34.47330000     -68.75010000
S      -43.00790000     -31.18540000     -73.64390000
S      -43.65080000     -33.27900000     -67.93900000
C      -44.79300000     -31.45190000     -73.77060000
H      -45.14890000     -30.55070000     -74.39230000
H      -45.02360000     -32.38540000     -74.32330000
C      -44.30670000     -32.09870000     -69.22260000
H      -43.85550000     -32.39740000     -70.12170000
H      -43.88240000     -31.16140000     -68.85410000
C      -45.81850000     -31.88800000     -69.28990000
H      -46.19590000     -31.68610000     -68.22330000
H      -45.95620000     -30.83900000     -69.68080000
C      -45.47470000     -31.48760000     -72.35430000
H      -45.86740000     -30.52350000     -72.10180000
H      -44.74000000     -31.76660000     -71.63370000
C      -46.61670000     -32.54140000     -72.37000000
C      -47.42040000     -32.88050000     -73.44660000
C      -47.10380000     -33.10350000     -71.15930000
H      -47.25810000     -32.51100000     -74.51730000
C      -48.17410000     -34.02330000     -71.39140000
C      -46.68980000     -33.02470000     -69.78090000
C      -47.45190000     -33.83180000     -68.95810000
S      -48.59930000     -34.13350000     -73.07520000
S      -48.60940000     -34.79570000     -69.85760000
H      -47.46430000     -33.74040000     -67.86440000
