40
Properties=species:S:1:pos:R:3 #=T CELL(abcABC):=T 1.889726e+02=T 90.00000=T Traj:=T positionsangstrom=T Step:=T 0=T Bead:=T pbc="F F F"
C      -47.55980000     -31.38090000     -70.05200000
C      -47.91240000     -31.50440000     -71.37510000
C      -47.15590000     -30.94500000     -72.48890000
C      -45.98590000     -30.28520000     -72.15100000
C      -45.55390000     -30.14590000     -70.81490000
C      -46.35520000     -30.67800000     -69.76800000
H      -48.16420000     -31.84930000     -69.18980000
H      -47.39110000     -31.15920000     -73.55770000
H      -44.61390000     -29.56430000     -70.62340000
H      -46.15850000     -30.60310000     -68.68930000
C      -45.14050000     -29.74540000     -73.29420000
H      -44.64470000     -28.81590000     -72.97630000
H      -45.63440000     -29.52210000     -74.23490000
C      -49.02720000     -32.41360000     -71.75220000
H      -49.77360000     -32.48580000     -70.93000000
H      -49.53860000     -32.16410000     -72.64810000
S      -43.81660000     -30.99590000     -73.82640000
S      -48.40380000     -34.13090000     -71.85090000
C      -43.40680000     -32.02210000     -72.32160000
H      -42.66050000     -31.60870000     -71.66960000
H      -44.17620000     -32.01070000     -71.65180000
C      -46.86820000     -34.04810000     -72.84400000
H      -46.29790000     -33.18940000     -72.46090000
H      -47.11450000     -33.86880000     -73.86450000
C      -46.00530000     -35.36040000     -72.80320000
H      -46.74900000     -36.08560000     -73.19000000
H      -45.24900000     -35.21110000     -73.57230000
C      -43.04630000     -33.45470000     -72.61170000
H      -42.13310000     -33.61220000     -73.19970000
H      -43.77870000     -33.94520000     -73.30810000
C      -43.02160000     -34.25970000     -71.31880000
C      -42.11070000     -33.96090000     -70.31730000
C      -44.11240000     -35.16540000     -70.91960000
H      -41.19140000     -33.24380000     -70.22210000
C      -43.88800000     -35.67760000     -69.65490000
C      -45.39610000     -35.70040000     -71.47430000
C      -46.08100000     -36.52530000     -70.61960000
S      -42.44500000     -35.01260000     -68.89640000
S      -45.19170000     -36.69850000     -69.00170000
H      -46.97140000     -37.11550000     -70.81920000
