40
Properties=species:S:1:pos:R:3 #=T CELL(abcABC):=T 1.889726e+02=T 90.00000=T Traj:=T positionsangstrom=T Step:=T 0=T Bead:=T pbc="F F F"
C      -47.21550000     -31.38310000     -69.97720000
C      -47.56900000     -31.61640000     -71.39180000
C      -46.95440000     -30.86600000     -72.45990000
C      -45.85120000     -30.04830000     -72.10880000
C      -45.50110000     -29.84620000     -70.78150000
C      -46.27770000     -30.39470000     -69.71800000
H      -47.84370000     -31.93130000     -69.21530000
H      -47.25390000     -31.01410000     -73.49780000
H      -44.63290000     -29.11060000     -70.58680000
H      -45.93360000     -30.29980000     -68.67330000
C      -44.90980000     -29.60790000     -73.23830000
H      -44.20970000     -28.93870000     -72.79160000
H      -45.40550000     -29.13280000     -74.10430000
C      -48.74500000     -32.47070000     -71.71320000
H      -49.52860000     -32.51840000     -70.97620000
H      -49.14830000     -32.00650000     -72.59340000
S      -44.07500000     -31.15630000     -73.80460000
S      -48.37250000     -34.32270000     -72.05500000
C      -43.29550000     -31.92750000     -72.27200000
H      -42.31970000     -31.38300000     -72.04660000
H      -44.17120000     -31.79110000     -71.57300000
C      -46.81610000     -34.11310000     -73.02610000
H      -46.22870000     -33.23230000     -72.77000000
H      -47.03430000     -33.91490000     -74.12850000
C      -45.97120000     -35.34330000     -72.88540000
H      -46.48790000     -36.36660000     -73.14530000
H      -45.07210000     -35.33840000     -73.53830000
C      -43.16180000     -33.45090000     -72.48780000
H      -42.26040000     -33.63620000     -73.07020000
H      -44.05540000     -33.77700000     -73.05550000
C      -43.14650000     -34.19160000     -71.18870000
C      -42.19040000     -34.05740000     -70.19590000
C      -44.28230000     -35.04910000     -70.84630000
H      -41.21490000     -33.50850000     -70.21570000
C      -44.05960000     -35.56480000     -69.56460000
C      -45.51710000     -35.62210000     -71.44440000
C      -46.13620000     -36.47070000     -70.58090000
S      -42.56600000     -35.11200000     -68.88970000
S      -45.30060000     -36.75610000     -69.09270000
H      -47.13660000     -36.84260000     -70.69240000
