40
Properties=species:S:1:pos:R:3 #=T CELL(abcABC):=T 1.889726e+02=T 90.00000=T Traj:=T positionsangstrom=T Step:=T 0=T Bead:=T pbc="F F F"
C      -43.78000000     -35.86040000     -70.70610000
C      -43.10590000     -34.66050000     -70.51940000
C      -43.18350000     -33.65160000     -71.53590000
C      -43.79510000     -33.86030000     -72.75440000
C      -44.50330000     -35.15570000     -72.98610000
C      -44.42660000     -36.08990000     -71.92600000
H      -43.73500000     -36.69540000     -70.00170000
H      -42.65580000     -32.73390000     -71.29460000
H      -45.03200000     -35.33040000     -73.89800000
H      -44.95090000     -36.99410000     -71.97500000
C      -43.85070000     -32.84300000     -73.81830000
H      -44.86430000     -32.85660000     -74.26210000
H      -43.06640000     -33.15470000     -74.57110000
C      -42.42540000     -34.26940000     -69.20670000
H      -42.07820000     -35.19000000     -68.68100000
H      -41.61510000     -33.52030000     -69.31980000
S      -43.39260000     -31.22310000     -73.15170000
S      -43.75370000     -33.71930000     -68.01510000
C      -45.06310000     -30.38640000     -73.22720000
H      -44.76100000     -29.31110000     -73.51710000
H      -45.55190000     -30.75070000     -74.11910000
C      -44.43420000     -32.08740000     -68.75340000
H      -44.04420000     -32.07360000     -69.78260000
H      -44.16850000     -31.19250000     -68.16650000
C      -45.92060000     -32.17390000     -68.77310000
H      -46.13400000     -32.49850000     -67.72420000
H      -46.35780000     -31.14930000     -68.88650000
C      -45.93660000     -30.60930000     -71.95260000
H      -46.52350000     -29.68730000     -71.63210000
H      -45.22460000     -30.81580000     -71.05950000
C      -46.87480000     -31.78980000     -72.06480000
C      -47.48310000     -32.12620000     -73.25720000
C      -46.87090000     -32.86480000     -71.14230000
H      -47.57560000     -31.52130000     -74.13530000
C      -47.45840000     -34.00440000     -71.71950000
C      -46.52470000     -33.15160000     -69.76330000
C      -46.75420000     -34.45920000     -69.39560000
S      -48.09080000     -33.75190000     -73.32180000
S      -47.49870000     -35.46920000     -70.72140000
H      -46.62520000     -34.97530000     -68.47380000
