40
Properties=species:S:1:pos:R:3 #=T CELL(abcABC):=T 1.889726e+02=T 90.00000=T Traj:=T positionsangstrom=T Step:=T 0=T Bead:=T pbc="F F F"
C      -43.65680000     -35.57800000     -71.43280000
C      -43.16530000     -34.35010000     -70.94600000
C      -43.26970000     -33.21930000     -71.76140000
C      -43.82540000     -33.20900000     -73.06540000
C      -44.32200000     -34.46870000     -73.50460000
C      -44.26780000     -35.57270000     -72.66530000
H      -43.67130000     -36.42460000     -70.72090000
H      -42.84880000     -32.28630000     -71.37720000
H      -44.76510000     -34.53360000     -74.56070000
H      -44.76670000     -36.52650000     -72.95110000
C      -43.73520000     -31.90740000     -73.84840000
H      -44.32090000     -32.16440000     -74.75130000
H      -42.76240000     -31.85170000     -74.29610000
C      -42.45420000     -34.18840000     -69.66790000
H      -41.93930000     -35.11040000     -69.48040000
H      -41.67280000     -33.39860000     -69.72880000
S      -43.91900000     -30.21850000     -73.02540000
S      -43.56880000     -33.78640000     -68.19770000
C      -45.76000000     -30.17180000     -72.97530000
H      -46.01430000     -29.10320000     -72.69910000
H      -46.22060000     -30.40160000     -73.92930000
C      -44.42700000     -32.15550000     -68.73760000
H      -44.03750000     -31.97360000     -69.78870000
H      -44.01830000     -31.35000000     -68.12410000
C      -45.95550000     -32.33630000     -68.63190000
H      -46.23060000     -32.51300000     -67.59400000
H      -46.45680000     -31.45920000     -68.96810000
C      -46.29030000     -31.01070000     -71.80370000
H      -47.11400000     -30.42150000     -71.39690000
H      -45.57940000     -31.01590000     -70.97700000
C      -46.70150000     -32.41350000     -72.07830000
C      -47.31930000     -32.89490000     -73.26820000
C      -46.68320000     -33.40600000     -70.99120000
H      -47.50990000     -32.40990000     -74.25240000
C      -47.20400000     -34.62230000     -71.44480000
C      -46.45570000     -33.46920000     -69.52500000
C      -46.82320000     -34.66890000     -68.98180000
S      -47.77030000     -34.60450000     -73.06980000
S      -47.45340000     -35.78190000     -70.16690000
H      -46.70830000     -35.04180000     -67.98990000
