40
Properties=species:S:1:pos:R:3 #=T CELL(abcABC):=T 1.889726e+02=T 90.00000=T Traj:=T positionsangstrom=T Step:=T 0=T Bead:=T pbc="F F F"
C      -43.72440000     -35.94000000     -70.73000000
C      -42.95570000     -34.77080000     -70.49480000
C      -43.05950000     -33.70990000     -71.48460000
C      -43.83390000     -33.83560000     -72.58840000
C      -44.51980000     -35.03430000     -72.83840000
C      -44.45430000     -36.08210000     -71.91130000
H      -43.57300000     -36.84000000     -69.96660000
H      -42.51140000     -32.85320000     -71.21410000
H      -45.17680000     -35.14340000     -73.69590000
H      -45.00770000     -37.04380000     -72.05080000
C      -43.84840000     -32.73950000     -73.70430000
H      -44.76300000     -32.83170000     -74.22450000
H      -43.01680000     -32.96820000     -74.35710000
C      -42.33550000     -34.62750000     -69.12370000
H      -41.97770000     -35.54870000     -68.59870000
H      -41.46180000     -33.95120000     -69.13230000
S      -43.54290000     -31.04470000     -73.24140000
S      -43.74860000     -33.86500000     -68.05460000
C      -45.17900000     -30.18060000     -73.27050000
H      -45.06200000     -29.08700000     -73.23970000
H      -45.63090000     -30.40270000     -74.22370000
C      -44.21200000     -32.23020000     -68.75740000
H      -43.65880000     -32.03590000     -69.72360000
H      -43.79150000     -31.52780000     -67.99760000
C      -45.74670000     -32.06280000     -68.92360000
H      -46.22230000     -32.06270000     -67.93540000
H      -45.98130000     -31.01670000     -69.36750000
C      -46.07510000     -30.61320000     -72.15230000
H      -46.86250000     -29.82750000     -72.09210000
H      -45.51090000     -30.48480000     -71.22000000
C      -46.68670000     -31.94840000     -72.25590000
C      -47.22540000     -32.33320000     -73.45130000
C      -46.88520000     -32.89860000     -71.17650000
H      -47.30580000     -31.82140000     -74.40380000
C      -47.61700000     -33.96810000     -71.66910000
C      -46.41430000     -33.06590000     -69.80650000
C      -46.82970000     -34.28330000     -69.32710000
S      -47.97880000     -33.88170000     -73.34430000
S      -47.78300000     -35.27700000     -70.49930000
H      -46.75100000     -34.70010000     -68.34070000
