40
Properties=species:S:1:pos:R:3 #=T CELL(abcABC):=T 1.889726e+02=T 90.00000=T Traj:=T positionsangstrom=T Step:=T 0=T Bead:=T pbc="F F F"
C      -44.76660000     -36.81620000     -74.52520000
C      -44.28310000     -35.94250000     -73.55660000
C      -44.46880000     -34.56810000     -73.73960000
C      -45.10480000     -34.06580000     -74.82270000
C      -45.64680000     -34.92590000     -75.77620000
C      -45.52660000     -36.28640000     -75.61640000
H      -44.64310000     -37.86230000     -74.38240000
H      -44.24270000     -33.76420000     -72.99640000
H      -46.27340000     -34.52250000     -76.53510000
H      -46.03510000     -36.91310000     -76.28440000
C      -45.20090000     -32.57170000     -75.04220000
H      -46.16320000     -32.31000000     -75.58910000
H      -44.41250000     -32.22270000     -75.73180000
C      -43.64840000     -36.42530000     -72.20820000
H      -43.99880000     -37.46410000     -72.04480000
H      -42.56070000     -36.23550000     -72.23460000
S      -45.19500000     -31.53460000     -73.52050000
S      -44.26360000     -35.37610000     -70.73640000
C      -47.01340000     -31.53170000     -72.89730000
H      -47.33680000     -30.47950000     -72.94030000
H      -47.68810000     -32.02780000     -73.57890000
C      -46.08110000     -35.63680000     -70.67610000
H      -46.24740000     -36.69820000     -70.58890000
H      -46.58710000     -35.28720000     -71.57410000
C      -46.74500000     -35.03180000     -69.40270000
H      -47.81270000     -34.86130000     -69.58820000
H      -46.68910000     -35.74910000     -68.62730000
C      -47.22260000     -32.24280000     -71.56000000
H      -47.08150000     -33.27990000     -71.58560000
H      -48.19870000     -32.04460000     -71.09550000
C      -46.26990000     -31.70000000     -70.50890000
C      -45.55590000     -30.53550000     -70.58060000
C      -45.93560000     -32.48270000     -69.29910000
H      -45.41900000     -29.83130000     -71.40210000
C      -45.14870000     -31.75250000     -68.44910000
C      -46.11270000     -33.84120000     -68.79780000
C      -45.64850000     -33.93200000     -67.43510000
S      -44.65840000     -30.15910000     -69.12670000
S      -44.92860000     -32.44000000     -66.86250000
H      -45.78830000     -34.86750000     -66.89020000
