40
Properties=species:S:1:pos:R:3 #=T CELL(abcABC):=T 1.889726e+02=T 90.00000=T Traj:=T positionsangstrom=T Step:=T 0=T Bead:=T pbc="F F F"
C      -43.72490000     -34.86480000     -72.12590000
C      -42.80520000     -33.77880000     -71.73780000
C      -42.83940000     -32.58720000     -72.49430000
C      -43.75330000     -32.29980000     -73.51870000
C      -44.46960000     -33.40170000     -73.92320000
C      -44.43880000     -34.63790000     -73.28660000
H      -43.74070000     -35.84730000     -71.58740000
H      -42.24010000     -31.66950000     -72.17970000
H      -45.03900000     -33.22820000     -74.82700000
H      -45.01850000     -35.39430000     -73.81500000
C      -43.71680000     -30.97070000     -74.14800000
H      -43.62290000     -31.04640000     -75.27240000
H      -42.85570000     -30.34720000     -73.77380000
C      -41.88770000     -33.79280000     -70.58600000
H      -41.15520000     -34.61860000     -70.48940000
H      -41.26460000     -32.90530000     -70.50620000
S      -45.19190000     -29.92320000     -73.59270000
S      -42.90160000     -33.97790000     -69.04430000
C      -46.54490000     -31.10730000     -73.10700000
H      -47.47620000     -30.49040000     -73.05020000
H      -46.56020000     -31.83780000     -73.85710000
C      -43.90130000     -32.35620000     -69.12560000
H      -43.80370000     -32.18730000     -70.24650000
H      -43.40430000     -31.55660000     -68.61140000
C      -45.29400000     -32.53940000     -68.66140000
H      -45.21000000     -32.62040000     -67.53480000
H      -45.85900000     -31.54330000     -68.82460000
C      -46.35490000     -31.61450000     -71.69750000
H      -46.86110000     -30.87970000     -71.08110000
H      -45.33060000     -31.69730000     -71.40990000
C      -47.05030000     -32.93330000     -71.43820000
C      -47.87670000     -33.53120000     -72.42270000
C      -46.83040000     -33.75180000     -70.29380000
H      -48.32830000     -33.07200000     -73.29260000
C      -47.41760000     -35.00720000     -70.44810000
C      -46.03170000     -33.68190000     -69.16240000
C      -46.01380000     -34.85000000     -68.43210000
S      -48.29840000     -35.14130000     -71.94280000
S      -46.93590000     -36.13920000     -69.26530000
H      -45.52170000     -34.97850000     -67.53190000
