40
Properties=species:S:1:pos:R:3 #=T CELL(abcABC):=T 1.889726e+02=T 90.00000=T Traj:=T positionsangstrom=T Step:=T 0=T Bead:=T pbc="F F F"
C      -43.81930000     -34.92530000     -72.31520000
C      -43.02030000     -33.80920000     -72.11660000
C      -43.22210000     -32.60310000     -72.78810000
C      -44.13770000     -32.59230000     -73.82990000
C      -44.92030000     -33.77250000     -74.14890000
C      -44.71360000     -34.94320000     -73.39020000
H      -43.79940000     -35.78290000     -71.64750000
H      -42.52790000     -31.77780000     -72.49480000
H      -45.57880000     -33.80620000     -74.97720000
H      -45.38960000     -35.84190000     -73.50410000
C      -44.51650000     -31.28340000     -74.55940000
H      -45.22460000     -31.50920000     -75.37000000
H      -43.59340000     -30.77440000     -74.85370000
C      -41.91430000     -33.78780000     -71.03850000
H      -41.35450000     -34.68720000     -71.15750000
H      -41.38890000     -32.85420000     -71.07570000
S      -45.20420000     -29.91200000     -73.53530000
S      -42.66630000     -33.84850000     -69.39240000
C      -46.63640000     -30.75880000     -72.70570000
H      -47.24850000     -29.89870000     -72.42510000
H      -47.10630000     -31.29570000     -73.47380000
C      -43.66560000     -32.32030000     -69.26980000
H      -43.79050000     -31.81670000     -70.32040000
H      -42.98000000     -31.55710000     -68.71880000
C      -44.97330000     -32.45740000     -68.50840000
H      -44.79680000     -32.47830000     -67.44510000
H      -45.59600000     -31.57300000     -68.66840000
C      -46.24260000     -31.53430000     -71.48130000
H      -46.37240000     -30.93150000     -70.49050000
H      -45.10730000     -31.65750000     -71.58840000
C      -46.88410000     -32.87830000     -71.32190000
C      -47.74340000     -33.53960000     -72.21730000
C      -46.55410000     -33.69340000     -70.15910000
H      -48.34010000     -32.95930000     -72.97130000
C      -47.16120000     -35.00800000     -70.26570000
C      -45.75190000     -33.65120000     -69.00650000
C      -45.90940000     -34.72870000     -68.20140000
S      -48.16240000     -35.17730000     -71.69060000
S      -46.90720000     -36.02300000     -68.94230000
H      -45.48100000     -34.82270000     -67.24570000
