40
Properties=species:S:1:pos:R:3 #=T CELL(abcABC):=T 1.889726e+02=T 90.00000=T Traj:=T positionsangstrom=T Step:=T 0=T Bead:=T pbc="F F F"
C      -47.57510000     -32.63190000     -68.12100000
C      -46.56510000     -33.64160000     -68.12350000
C      -45.20170000     -33.28360000     -68.17520000
C      -44.87200000     -31.92680000     -68.15020000
C      -45.88310000     -30.94890000     -68.14190000
C      -47.22100000     -31.28660000     -68.17100000
H      -48.61990000     -32.92030000     -68.11860000
H      -44.45150000     -34.06780000     -68.20510000
H      -45.53390000     -29.93150000     -68.37540000
H      -48.04300000     -30.52040000     -68.17570000
C      -43.38790000     -31.52380000     -68.11100000
H      -43.06510000     -31.52200000     -67.12450000
H      -43.27560000     -30.45360000     -68.33210000
C      -46.86460000     -35.11730000     -68.16360000
H      -45.83440000     -35.63350000     -68.08060000
H      -47.54870000     -35.32020000     -67.28590000
S      -42.16240000     -32.41390000     -69.11010000
S      -47.83570000     -35.75080000     -69.56340000
C      -42.80390000     -32.04200000     -70.85320000
H      -43.51710000     -31.19350000     -70.89910000
H      -41.83900000     -31.81100000     -71.30450000
C      -46.88000000     -35.20710000     -71.08550000
H      -47.08860000     -35.98890000     -71.82630000
H      -45.74780000     -35.30340000     -70.90280000
C      -47.16230000     -33.86930000     -71.74240000
H      -48.19770000     -33.62530000     -71.82810000
H      -46.68140000     -33.09230000     -71.11080000
C      -43.67480000     -33.24830000     -71.35000000
H      -44.60350000     -33.10230000     -70.79630000
H      -43.32130000     -34.24890000     -71.04110000
C      -43.89090000     -33.37360000     -72.87610000
C      -42.82120000     -33.30210000     -73.74570000
C      -45.11370000     -33.62120000     -73.59570000
H      -41.74510000     -33.14940000     -73.49600000
C      -44.99960000     -33.51490000     -74.94820000
C      -46.53820000     -33.82690000     -73.11630000
C      -47.35810000     -33.90230000     -74.24220000
S      -43.35340000     -33.45160000     -75.44070000
S      -46.58510000     -33.78410000     -75.77220000
H      -48.37970000     -34.21290000     -74.38680000
