40
Properties=species:S:1:pos:R:3 #=T CELL(abcABC):=T 1.889726e+02=T 90.00000=T Traj:=T positionsangstrom=T Step:=T 0=T Bead:=T pbc="F F F"
C      -44.43500000     -35.49880000     -72.08460000
C      -43.52880000     -34.42880000     -72.28050000
C      -43.81970000     -33.38670000     -73.14090000
C      -45.13010000     -33.32090000     -73.69760000
C      -46.04900000     -34.38100000     -73.58360000
C      -45.70960000     -35.41500000     -72.71790000
H      -44.33920000     -36.29560000     -71.36600000
H      -43.25250000     -32.50790000     -73.25740000
H      -47.04220000     -34.23150000     -74.00260000
H      -46.50590000     -36.12080000     -72.44420000
C      -45.43600000     -32.22650000     -74.73060000
H      -46.30940000     -32.55960000     -75.25310000
H      -44.56020000     -32.29160000     -75.47140000
C      -42.13150000     -34.48560000     -71.68530000
H      -41.79930000     -35.47760000     -71.33640000
H      -41.32670000     -34.29370000     -72.37420000
S      -45.41680000     -30.42650000     -74.05500000
S      -41.90540000     -33.71790000     -70.03610000
C      -46.68730000     -30.55760000     -72.69850000
H      -47.01060000     -29.56950000     -72.47920000
H      -47.53450000     -31.06920000     -73.01160000
C      -42.79570000     -32.14980000     -70.07990000
H      -43.00140000     -31.83700000     -71.15110000
H      -42.17960000     -31.34470000     -69.74000000
C      -43.95220000     -32.19050000     -69.12870000
H      -43.72490000     -32.27300000     -68.07730000
H      -44.45910000     -31.21940000     -69.37840000
C      -46.13690000     -31.18920000     -71.44810000
H      -46.19230000     -30.47570000     -70.64450000
H      -45.09220000     -31.48920000     -71.56830000
C      -46.84470000     -32.41000000     -70.91360000
C      -48.06590000     -32.87720000     -71.38810000
C      -46.19950000     -33.29750000     -70.00510000
H      -48.65590000     -32.46360000     -72.22730000
C      -47.05680000     -34.38390000     -69.74170000
C      -44.98250000     -33.35380000     -69.29910000
C      -44.83510000     -34.54530000     -68.63480000
S      -48.54280000     -34.38430000     -70.64660000
S      -46.28480000     -35.62090000     -68.74100000
H      -43.87930000     -34.73220000     -68.02940000
