40
Properties=species:S:1:pos:R:3 #=T CELL(abcABC):=T 1.889726e+02=T 90.00000=T Traj:=T positionsangstrom=T Step:=T 0=T Bead:=T pbc="F F F"
C      -44.11910000     -35.88570000     -72.66240000
C      -43.66650000     -34.57830000     -73.10580000
C      -44.63640000     -33.63330000     -73.37080000
C      -46.00590000     -33.88770000     -73.23280000
C      -46.42830000     -35.11670000     -72.82580000
C      -45.48150000     -36.15100000     -72.56840000
H      -43.46360000     -36.65630000     -72.36580000
H      -44.34130000     -32.63530000     -73.63070000
H      -47.51670000     -35.30940000     -72.82650000
H      -45.87320000     -37.15560000     -72.24140000
C      -47.10980000     -32.84140000     -73.58260000
H      -47.93000000     -32.70710000     -72.81950000
H      -47.57350000     -33.14380000     -74.52270000
C      -42.17730000     -34.22480000     -73.02280000
H      -41.56900000     -35.14200000     -73.13020000
H      -41.83100000     -33.57880000     -73.84310000
S      -46.45890000     -31.16550000     -73.95120000
S      -41.56770000     -33.65540000     -71.35270000
C      -46.76500000     -30.22990000     -72.33900000
H      -46.48330000     -29.19150000     -72.52440000
H      -47.89290000     -30.11550000     -72.22920000
C      -42.56040000     -32.10310000     -70.93990000
H      -43.20610000     -31.95940000     -71.78050000
H      -41.97740000     -31.21650000     -70.85600000
C      -43.27600000     -32.23430000     -69.56940000
H      -42.68790000     -32.70960000     -68.73980000
H      -43.61320000     -31.17720000     -69.23100000
C      -46.01460000     -30.70510000     -71.06590000
H      -45.83930000     -29.86770000     -70.31600000
H      -45.00230000     -31.01350000     -71.30280000
C      -46.63550000     -31.89540000     -70.32940000
C      -47.99390000     -32.12800000     -70.13860000
C      -45.83470000     -32.99740000     -69.86070000
H      -48.78080000     -31.40180000     -70.35140000
C      -46.59620000     -34.10030000     -69.45050000
C      -44.45000000     -33.21880000     -69.51590000
C      -44.17880000     -34.49470000     -68.99570000
S      -48.34360000     -33.78360000     -69.65340000
S      -45.66800000     -35.43720000     -68.79490000
H      -43.24320000     -34.79570000     -68.52620000
