40
Properties=species:S:1:pos:R:3 #=T CELL(abcABC):=T 1.889726e+02=T 90.00000=T Traj:=T positionsangstrom=T Step:=T 0=T Bead:=T pbc="F F F"
C      -47.41670000     -35.14850000     -74.66250000
C      -46.12700000     -35.31890000     -74.17810000
C      -46.01530000     -35.70550000     -72.79290000
C      -47.18770000     -35.92360000     -72.04560000
C      -48.48820000     -35.74900000     -72.55590000
C      -48.54840000     -35.31390000     -73.87750000
H      -47.46630000     -34.88410000     -75.73720000
H      -45.05670000     -35.76370000     -72.33680000
H      -49.44140000     -35.78870000     -72.08330000
H      -49.55210000     -35.05090000     -74.29650000
C      -47.02110000     -36.28750000     -70.58410000
H      -46.48020000     -37.21790000     -70.43640000
H      -48.08770000     -36.45200000     -70.29330000
C      -45.02840000     -35.07050000     -75.09270000
H      -44.11880000     -35.72290000     -74.88670000
H      -45.30760000     -35.38970000     -76.04700000
S      -46.19920000     -35.02610000     -69.52870000
S      -44.61730000     -33.31090000     -75.33080000
C      -47.50430000     -33.70480000     -69.43160000
H      -48.41970000     -34.15560000     -69.90610000
H      -47.68080000     -33.54650000     -68.42140000
C      -43.76710000     -32.93300000     -73.72370000
H      -43.02880000     -32.12120000     -73.91710000
H      -43.27560000     -33.84610000     -73.39950000
C      -44.66630000     -32.51280000     -72.61150000
H      -45.29020000     -31.77710000     -72.95010000
H      -45.39390000     -33.32650000     -72.40500000
C      -47.13800000     -32.36270000     -70.08160000
H      -47.91490000     -31.59770000     -70.09860000
H      -47.14660000     -32.59290000     -71.14280000
C      -45.86070000     -31.83110000     -69.44590000
C      -45.86270000     -31.56890000     -68.11150000
C      -44.52600000     -31.77300000     -69.97250000
H      -46.75540000     -31.65340000     -67.42450000
C      -43.53310000     -31.38370000     -69.06060000
C      -43.95930000     -32.03900000     -71.31060000
C      -42.60940000     -31.98400000     -71.23740000
S      -44.34590000     -31.22310000     -67.42650000
S      -41.89400000     -31.43480000     -69.68460000
H      -41.89020000     -32.12290000     -72.08970000
