40
Properties=species:S:1:pos:R:3 #=T CELL(abcABC):=T 1.889726e+02=T 90.00000=T Traj:=T positionsangstrom=T Step:=T 0=T Bead:=T pbc="F F F"
C      -43.93140000     -35.92200000     -72.93000000
C      -43.54200000     -34.59460000     -72.87970000
C      -44.55470000     -33.62850000     -73.19710000
C      -45.91880000     -33.86130000     -73.43340000
C      -46.27270000     -35.28100000     -73.33790000
C      -45.29010000     -36.25380000     -73.10180000
H      -43.12910000     -36.65490000     -72.83910000
H      -44.27410000     -32.61520000     -73.37000000
H      -47.25700000     -35.64620000     -73.64520000
H      -45.48140000     -37.30170000     -73.28050000
C      -47.00750000     -32.87410000     -73.74980000
H      -47.73930000     -32.87630000     -72.93270000
H      -47.59410000     -33.14420000     -74.67030000
C      -42.07190000     -34.26420000     -72.65720000
H      -41.40400000     -35.05860000     -73.04460000
H      -41.83640000     -33.26090000     -73.06240000
S      -46.45900000     -31.15130000     -73.99830000
S      -41.69050000     -33.84320000     -70.85800000
C      -46.89070000     -30.24280000     -72.44620000
H      -46.62510000     -29.20510000     -72.73910000
H      -48.01640000     -30.31140000     -72.28490000
C      -42.46760000     -32.19010000     -70.74710000
H      -42.97130000     -32.02570000     -71.68250000
H      -41.68730000     -31.49990000     -70.67810000
C      -43.41990000     -32.00080000     -69.63430000
H      -43.05330000     -31.88650000     -68.56040000
H      -43.93920000     -30.97570000     -69.70230000
C      -46.27150000     -30.58510000     -71.05640000
H      -46.61220000     -29.74550000     -70.38510000
H      -45.17990000     -30.63200000     -70.96890000
C      -46.76450000     -31.87950000     -70.39560000
C      -48.07870000     -32.25320000     -70.37800000
C      -45.90220000     -32.94570000     -69.84200000
H      -48.99110000     -31.76060000     -70.67800000
C      -46.60990000     -34.10950000     -69.53120000
C      -44.48820000     -33.03630000     -69.52910000
C      -44.24480000     -34.19020000     -68.86760000
S      -48.33400000     -33.90300000     -69.74620000
S      -45.62350000     -35.28500000     -68.66680000
H      -43.26670000     -34.43240000     -68.51840000
