40
Properties=species:S:1:pos:R:3 #=T CELL(abcABC):=T 1.889726e+02=T 90.00000=T Traj:=T positionsangstrom=T Step:=T 0=T Bead:=T pbc="F F F"
C      -44.16600000     -35.84810000     -72.43660000
C      -43.67370000     -34.66990000     -72.98840000
C      -44.64420000     -33.66460000     -73.36260000
C      -45.99460000     -33.83220000     -73.16630000
C      -46.47660000     -35.07200000     -72.69440000
C      -45.54830000     -36.04410000     -72.31340000
H      -43.49530000     -36.61620000     -72.10520000
H      -44.30070000     -32.81740000     -73.88520000
H      -47.50700000     -35.29120000     -72.50410000
H      -45.97560000     -36.96840000     -71.98210000
C      -47.05030000     -32.76670000     -73.55580000
H      -47.93230000     -32.86520000     -72.93210000
H      -47.44830000     -33.01660000     -74.57610000
C      -42.24440000     -34.32610000     -73.13650000
H      -41.61270000     -35.18560000     -73.41810000
H      -42.18800000     -33.50170000     -73.87670000
S      -46.43610000     -31.01280000     -73.83010000
S      -41.53230000     -33.60850000     -71.47970000
C      -46.74650000     -30.17430000     -72.17760000
H      -46.44340000     -29.09590000     -72.38820000
H      -47.79270000     -30.21540000     -72.16450000
C      -42.73970000     -32.28020000     -71.16820000
H      -43.62760000     -32.41490000     -71.79020000
H      -42.29440000     -31.26080000     -71.37030000
C      -43.29300000     -32.30500000     -69.76720000
H      -42.43140000     -32.43580000     -69.10310000
H      -43.68200000     -31.31390000     -69.59150000
C      -45.94290000     -30.68140000     -70.96260000
H      -45.93320000     -29.90120000     -70.17940000
H      -44.95840000     -30.73810000     -71.35290000
C      -46.51320000     -31.97460000     -70.42890000
C      -47.90260000     -32.18370000     -70.38310000
C      -45.77780000     -33.06480000     -69.85340000
H      -48.59590000     -31.38560000     -70.76180000
C      -46.58960000     -34.09200000     -69.37980000
C      -44.39470000     -33.36870000     -69.62130000
C      -44.24020000     -34.67180000     -69.12170000
S      -48.33260000     -33.67480000     -69.56230000
S      -45.71170000     -35.51050000     -68.85420000
H      -43.31460000     -35.15590000     -68.77800000
