40
Properties=species:S:1:pos:R:3 #=T CELL(abcABC):=T 1.889726e+02=T 90.00000=T Traj:=T positionsangstrom=T Step:=T 0=T Bead:=T pbc="F F F"
C      -43.98060000     -36.01120000     -72.68900000
C      -43.37290000     -34.74300000     -72.85040000
C      -44.17110000     -33.68300000     -73.38180000
C      -45.53130000     -33.87700000     -73.60690000
C      -46.04260000     -35.15790000     -73.47930000
C      -45.29160000     -36.22400000     -73.05670000
H      -43.43870000     -36.83720000     -72.34550000
H      -43.63440000     -32.74710000     -73.55170000
H      -47.09980000     -35.23290000     -73.84280000
H      -45.64800000     -37.23180000     -73.08510000
C      -46.55190000     -32.77080000     -74.03900000
H      -47.50100000     -32.89360000     -73.48480000
H      -46.78610000     -33.01030000     -75.03840000
C      -42.01370000     -34.40800000     -72.42360000
H      -41.34340000     -35.25150000     -72.38180000
H      -41.59310000     -33.61100000     -73.09050000
S      -45.82690000     -31.07520000     -73.88310000
S      -41.85570000     -33.64250000     -70.70940000
C      -46.76960000     -30.30920000     -72.54810000
H      -46.71520000     -29.24240000     -72.67600000
H      -47.82880000     -30.47070000     -72.59390000
C      -42.94090000     -32.09420000     -70.55390000
H      -43.56420000     -31.95250000     -71.40370000
H      -42.17330000     -31.26630000     -70.60360000
C      -43.72630000     -31.96620000     -69.27420000
H      -42.96450000     -31.90000000     -68.47740000
H      -44.19070000     -30.88160000     -69.17700000
C      -46.23370000     -30.73030000     -71.11640000
H      -46.45970000     -29.97540000     -70.34300000
H      -45.15830000     -30.71490000     -71.09820000
C      -46.71510000     -32.11350000     -70.67910000
C      -47.98540000     -32.49480000     -71.07010000
C      -46.03430000     -32.99210000     -69.81660000
H      -48.70230000     -31.90530000     -71.60160000
C      -46.83860000     -34.09100000     -69.51850000
C      -44.80390000     -33.01020000     -69.15440000
C      -44.67020000     -34.11990000     -68.35920000
S      -48.41830000     -34.01190000     -70.27820000
S      -46.03830000     -35.18060000     -68.45090000
H      -43.86390000     -34.41970000     -67.74220000
