40
Properties=species:S:1:pos:R:3 #=T CELL(abcABC):=T 1.889726e+02=T 90.00000=T Traj:=T positionsangstrom=T Step:=T 0=T Bead:=T pbc="F F F"
C      -44.76760000     -35.65250000     -72.25920000
C      -43.97250000     -34.75360000     -72.98800000
C      -44.67330000     -33.67230000     -73.58910000
C      -46.06740000     -33.65980000     -73.62350000
C      -46.83050000     -34.68530000     -73.06230000
C      -46.14470000     -35.68120000     -72.26860000
H      -44.39980000     -36.45790000     -71.63490000
H      -44.15370000     -32.90830000     -74.05030000
H      -47.94870000     -34.57570000     -73.17830000
H      -46.65490000     -36.49430000     -71.78830000
C      -46.87300000     -32.44060000     -74.20500000
H      -47.85680000     -32.35040000     -73.81680000
H      -46.98730000     -32.46010000     -75.30580000
C      -42.48160000     -34.63360000     -72.99670000
H      -41.96190000     -35.58540000     -73.00460000
H      -42.14610000     -33.99650000     -73.89240000
S      -46.07000000     -30.88420000     -73.76310000
S      -41.71070000     -33.89060000     -71.50710000
C      -46.98790000     -30.37620000     -72.18350000
H      -46.88200000     -29.25980000     -72.34540000
H      -48.05760000     -30.71050000     -72.21020000
C      -42.60280000     -32.30620000     -71.24130000
H      -43.43340000     -32.33860000     -71.98630000
H      -41.88990000     -31.52110000     -71.46960000
C      -43.10270000     -32.17450000     -69.77670000
H      -42.24600000     -32.40790000     -69.11460000
H      -43.43860000     -31.13160000     -69.48910000
C      -46.22860000     -30.67470000     -70.89080000
H      -46.47390000     -29.87950000     -70.18600000
H      -45.22700000     -30.57710000     -71.14830000
C      -46.63820000     -32.09490000     -70.37300000
C      -47.94990000     -32.54570000     -70.33850000
C      -45.70540000     -33.02900000     -69.75770000
H      -48.80990000     -32.02280000     -70.78690000
C      -46.37890000     -34.13600000     -69.30850000
C      -44.27230000     -33.09000000     -69.42400000
C      -43.98260000     -34.30710000     -68.86650000
S      -48.11360000     -34.13320000     -69.57540000
S      -45.40980000     -35.33770000     -68.60280000
H      -42.99610000     -34.71900000     -68.62800000
