40
Properties=species:S:1:pos:R:3 #=T CELL(abcABC):=T 1.889726e+02=T 90.00000=T Traj:=T positionsangstrom=T Step:=T 0=T Bead:=T pbc="F F F"
C      -44.76530000     -35.66270000     -72.38440000
C      -44.02350000     -34.64990000     -73.01310000
C      -44.76740000     -33.66150000     -73.60090000
C      -46.16930000     -33.57030000     -73.57840000
C      -46.93290000     -34.56980000     -72.95140000
C      -46.17010000     -35.61590000     -72.33610000
H      -44.34790000     -36.49270000     -71.77700000
H      -44.27040000     -32.83770000     -74.04680000
H      -47.99590000     -34.54870000     -72.94000000
H      -46.69810000     -36.37740000     -71.71980000
C      -46.82140000     -32.41860000     -74.31300000
H      -47.93670000     -32.34060000     -74.33410000
H      -46.43910000     -32.48500000     -75.34920000
C      -42.54900000     -34.71590000     -73.02560000
H      -42.24700000     -35.76040000     -73.10300000
H      -42.14500000     -34.21680000     -73.88170000
S      -46.10820000     -30.76270000     -73.71070000
S      -41.74650000     -34.08420000     -71.40280000
C      -47.12430000     -30.36020000     -72.21230000
H      -47.35310000     -29.34930000     -72.32880000
H      -48.08490000     -30.82930000     -72.27070000
C      -42.44680000     -32.40650000     -71.31630000
H      -43.07640000     -32.28230000     -72.15410000
H      -41.60170000     -31.68380000     -71.40040000
C      -43.27060000     -32.10310000     -70.04650000
H      -42.56920000     -32.01170000     -69.19030000
H      -43.79820000     -31.14550000     -70.23030000
C      -46.39290000     -30.64310000     -70.89790000
H      -46.79960000     -30.05420000     -70.06230000
H      -45.32180000     -30.29720000     -70.95930000
C      -46.61440000     -32.15670000     -70.40920000
C      -47.92160000     -32.65540000     -70.29810000
C      -45.65500000     -33.03280000     -69.82170000
H      -48.77530000     -31.99520000     -70.63250000
C      -46.28010000     -34.14500000     -69.28170000
C      -44.20310000     -33.12640000     -69.61250000
C      -43.91010000     -34.28130000     -68.86260000
S      -48.01040000     -34.17340000     -69.54880000
S      -45.27940000     -35.27930000     -68.45320000
H      -42.91640000     -34.61760000     -68.60490000
