40
Properties=species:S:1:pos:R:3 #=T CELL(abcABC):=T 1.889726e+02=T 90.00000=T Traj:=T positionsangstrom=T Step:=T 0=T Bead:=T pbc="F F F"
C      -44.66030000     -35.77660000     -72.34940000
C      -43.97280000     -34.73120000     -72.93150000
C      -44.66710000     -33.68590000     -73.60790000
C      -46.04620000     -33.61730000     -73.39730000
C      -46.74660000     -34.61160000     -72.72650000
C      -46.01900000     -35.68650000     -72.23260000
H      -44.15280000     -36.60510000     -71.89020000
H      -44.20750000     -32.88710000     -74.16630000
H      -47.81270000     -34.51000000     -72.57880000
H      -46.54580000     -36.54950000     -71.76480000
C      -46.82090000     -32.49400000     -74.00390000
H      -47.89180000     -32.49180000     -73.75050000
H      -46.74690000     -32.63710000     -75.10830000
C      -42.41740000     -34.70620000     -73.03200000
H      -41.97410000     -35.69760000     -72.93110000
H      -42.08840000     -34.23650000     -73.92690000
S      -46.10160000     -30.78910000     -73.85570000
S      -41.77230000     -33.69680000     -71.52710000
C      -46.61860000     -30.23680000     -72.21930000
H      -46.51850000     -29.16150000     -72.20480000
H      -47.67860000     -30.41700000     -72.21090000
C      -42.86960000     -32.20850000     -71.28310000
H      -43.56360000     -32.25430000     -72.14040000
H      -42.33910000     -31.27190000     -71.47100000
C      -43.33130000     -32.23620000     -69.80610000
H      -42.48380000     -32.28020000     -69.23790000
H      -43.75770000     -31.31320000     -69.56240000
C      -45.96700000     -30.80760000     -70.93840000
H      -46.07900000     -30.02310000     -70.10550000
H      -44.89740000     -30.91700000     -71.05410000
C      -46.51800000     -32.13230000     -70.37420000
C      -47.86130000     -32.40400000     -70.36790000
C      -45.70320000     -33.18520000     -69.71940000
H      -48.64880000     -31.82930000     -70.80520000
C      -46.52110000     -34.25230000     -69.26650000
C      -44.31180000     -33.29580000     -69.43710000
C      -44.01320000     -34.51880000     -68.97470000
S      -48.26580000     -33.96130000     -69.63910000
S      -45.42200000     -35.52870000     -68.62250000
H      -43.07080000     -34.87200000     -68.66690000
