40
Properties=species:S:1:pos:R:3 #=T CELL(abcABC):=T 1.889726e+02=T 90.00000=T Traj:=T positionsangstrom=T Step:=T 0=T Bead:=T pbc="F F F"
C      -47.68200000     -35.15490000     -74.66740000
C      -46.38570000     -35.29810000     -74.22050000
C      -46.15530000     -35.81240000     -72.90930000
C      -47.27470000     -36.00860000     -72.06640000
C      -48.58020000     -35.74980000     -72.51080000
C      -48.78790000     -35.30460000     -73.79680000
H      -47.74630000     -34.69690000     -75.65590000
H      -45.13170000     -35.83740000     -72.51280000
H      -49.42700000     -35.98320000     -71.87420000
H      -49.78620000     -34.97250000     -74.13850000
C      -46.90060000     -36.51950000     -70.69160000
H      -46.00950000     -37.18470000     -70.61310000
H      -47.68720000     -37.07800000     -70.24840000
C      -45.20210000     -35.07940000     -75.17510000
H      -44.44360000     -35.86750000     -74.93400000
H      -45.45450000     -35.13480000     -76.26680000
S      -46.09950000     -35.07810000     -69.53850000
S      -44.61000000     -33.32060000     -75.16820000
C      -47.47830000     -33.78340000     -69.60360000
H      -48.33920000     -34.20870000     -70.15280000
H      -47.87690000     -33.76860000     -68.53520000
C      -43.73420000     -32.95650000     -73.56520000
H      -42.84760000     -32.41030000     -73.84810000
H      -43.25310000     -33.87910000     -73.12210000
C      -44.65350000     -32.31720000     -72.56790000
H      -45.07550000     -31.36660000     -73.04370000
H      -45.49360000     -33.02120000     -72.49000000
C      -47.09260000     -32.37330000     -70.04980000
H      -47.93440000     -31.71340000     -69.85320000
H      -46.93470000     -32.40230000     -71.15960000
C      -45.80290000     -31.90680000     -69.37750000
C      -45.79410000     -31.55560000     -68.04860000
C      -44.45400000     -31.90910000     -69.96050000
H      -46.67360000     -31.40000000     -67.38280000
C      -43.53450000     -31.46310000     -69.06490000
C      -43.92930000     -31.92850000     -71.29320000
C      -42.60460000     -31.82050000     -71.30400000
S      -44.16640000     -31.08390000     -67.51850000
S      -41.89350000     -31.39440000     -69.70410000
H      -41.94560000     -31.88820000     -72.20130000
