40
Properties=species:S:1:pos:R:3 #=T CELL(abcABC):=T 1.889726e+02=T 90.00000=T Traj:=T positionsangstrom=T Step:=T 0=T Bead:=T pbc="F F F"
C      -45.14300000     -35.68040000     -72.70490000
C      -44.44470000     -34.60610000     -73.20520000
C      -45.22270000     -33.43420000     -73.61050000
C      -46.62340000     -33.38980000     -73.55480000
C      -47.30560000     -34.49920000     -72.94050000
C      -46.55490000     -35.61530000     -72.57410000
H      -44.54600000     -36.55900000     -72.48990000
H      -44.79570000     -32.62890000     -74.16920000
H      -48.37800000     -34.46510000     -72.93610000
H      -47.07140000     -36.49540000     -72.14060000
C      -47.42070000     -32.17160000     -74.06400000
H      -48.44110000     -32.11310000     -73.67480000
H      -47.38660000     -32.20700000     -75.15950000
C      -42.93770000     -34.57220000     -73.25970000
H      -42.55990000     -35.54470000     -73.57790000
H      -42.63620000     -33.91540000     -74.07770000
S      -46.37490000     -30.62300000     -73.70950000
S      -42.02520000     -34.07750000     -71.75440000
C      -46.75260000     -30.25540000     -71.90650000
H      -46.55340000     -29.16940000     -71.88360000
H      -47.87180000     -30.38850000     -71.72320000
C      -42.59700000     -32.39110000     -71.42750000
H      -43.51030000     -32.40560000     -72.02130000
H      -41.92340000     -31.65980000     -71.84420000
C      -42.85920000     -32.24110000     -69.90390000
H      -41.90680000     -32.40700000     -69.46870000
H      -43.21390000     -31.18850000     -69.70570000
C      -45.87110000     -30.90220000     -70.86450000
H      -45.63630000     -30.20560000     -70.10650000
H      -44.86150000     -31.04840000     -71.33780000
C      -46.29250000     -32.22540000     -70.32450000
C      -47.58060000     -32.68690000     -70.24060000
C      -45.34480000     -33.11260000     -69.66790000
H      -48.49780000     -32.14750000     -70.54830000
C      -45.98050000     -34.28430000     -69.18260000
C      -43.92730000     -33.22080000     -69.43800000
C      -43.55890000     -34.39840000     -68.89690000
S      -47.69270000     -34.26830000     -69.29290000
S      -44.90250000     -35.36640000     -68.41740000
H      -42.57830000     -34.69450000     -68.58040000
