40
Properties=species:S:1:pos:R:3 #=T CELL(abcABC):=T 1.889726e+02=T 90.00000=T Traj:=T positionsangstrom=T Step:=T 0=T Bead:=T pbc="F F F"
C      -45.02530000     -35.72140000     -72.42490000
C      -44.21450000     -34.71490000     -72.97530000
C      -44.84580000     -33.61100000     -73.57590000
C      -46.21370000     -33.37640000     -73.50590000
C      -46.99350000     -34.36630000     -72.87040000
C      -46.42000000     -35.53850000     -72.39230000
H      -44.50260000     -36.48290000     -71.87380000
H      -44.18370000     -32.81350000     -73.99260000
H      -48.09270000     -34.17480000     -72.73670000
H      -47.08920000     -36.34440000     -72.13170000
C      -46.93030000     -32.30760000     -74.30370000
H      -47.96710000     -32.30250000     -74.03440000
H      -46.81940000     -32.32790000     -75.39180000
C      -42.68560000     -34.76590000     -73.01820000
H      -42.33000000     -35.79650000     -73.13370000
H      -42.25420000     -34.21370000     -73.85310000
S      -46.34630000     -30.61580000     -73.70200000
S      -41.86290000     -34.05690000     -71.53120000
C      -47.17800000     -30.30280000     -72.07540000
H      -47.23670000     -29.22230000     -72.11530000
H      -48.09760000     -30.79030000     -72.03050000
C      -42.67660000     -32.37290000     -71.46460000
H      -43.64160000     -32.36460000     -71.96620000
H      -42.01300000     -31.65900000     -71.83820000
C      -43.02870000     -32.19010000     -69.98080000
H      -42.06870000     -32.29850000     -69.34910000
H      -43.24740000     -31.07510000     -69.85720000
C      -46.25900000     -30.75670000     -70.86440000
H      -46.67600000     -30.11640000     -70.05930000
H      -45.23130000     -30.53870000     -71.00950000
C      -46.49780000     -32.19620000     -70.40630000
C      -47.77030000     -32.74640000     -70.31770000
C      -45.49690000     -33.08510000     -69.76510000
H      -48.66010000     -32.36820000     -70.77090000
C      -46.09840000     -34.23990000     -69.29940000
C      -44.06410000     -33.11040000     -69.51200000
C      -43.69350000     -34.30130000     -68.85030000
S      -47.86190000     -34.30390000     -69.52460000
S      -45.03250000     -35.34490000     -68.49830000
H      -42.68510000     -34.59020000     -68.65430000
