40
Properties=species:S:1:pos:R:3 #=T CELL(abcABC):=T 1.889726e+02=T 90.00000=T Traj:=T positionsangstrom=T Step:=T 0=T Bead:=T pbc="F F F"
C      -45.32960000     -30.81690000     -72.09750000
C      -45.87810000     -31.65350000     -73.08120000
C      -44.89350000     -32.38520000     -73.83310000
C      -43.46170000     -32.23070000     -73.62450000
C      -43.01450000     -31.43270000     -72.58000000
C      -43.96170000     -30.66620000     -71.85510000
H      -46.11080000     -30.12230000     -71.58310000
H      -45.27910000     -33.07600000     -74.54840000
H      -41.95900000     -31.47390000     -72.28040000
H      -43.50380000     -30.15240000     -71.05130000
C      -42.49010000     -32.93030000     -74.45130000
H      -41.60750000     -32.31240000     -74.69290000
H      -42.99420000     -33.20600000     -75.33440000
C      -47.31240000     -31.59840000     -73.48020000
H      -47.61940000     -30.50450000     -73.45970000
H      -47.52120000     -31.98330000     -74.50900000
S      -41.87810000     -34.54070000     -73.67440000
S      -48.66210000     -32.15010000     -72.31320000
C      -42.35230000     -34.58330000     -71.93030000
H      -41.86090000     -35.40790000     -71.54690000
H      -41.93260000     -33.74940000     -71.31370000
C      -48.47380000     -34.02600000     -72.56290000
H      -48.62700000     -34.04050000     -73.61830000
H      -49.29120000     -34.46340000     -72.06640000
C      -47.18620000     -34.63560000     -71.98690000
H      -47.33530000     -35.72130000     -72.25860000
H      -46.25180000     -34.38800000     -72.54360000
C      -43.94300000     -34.81140000     -71.78120000
H      -44.19080000     -35.72360000     -72.34410000
H      -44.43760000     -33.97670000     -72.26470000
C      -44.36150000     -34.74080000     -70.24740000
C      -43.51660000     -34.66140000     -69.16760000
C      -45.71510000     -34.40310000     -69.86390000
H      -42.48380000     -34.90010000     -69.09060000
C      -45.85980000     -34.00750000     -68.54010000
C      -47.03680000     -34.31870000     -70.49750000
C      -48.05740000     -34.04840000     -69.63440000
S      -44.36170000     -34.20990000     -67.66970000
S      -47.44030000     -33.77500000     -67.94820000
H      -49.08450000     -33.90510000     -69.75150000
