40
Properties=species:S:1:pos:R:3 #=T CELL(abcABC):=T 1.889726e+02=T 90.00000=T Traj:=T positionsangstrom=T Step:=T 0=T Bead:=T pbc="F F F"
C      -45.92970000     -35.66760000     -72.78060000
C      -45.30800000     -34.69820000     -73.62370000
C      -45.80470000     -33.39790000     -73.69510000
C      -46.94770000     -33.07270000     -72.98780000
C      -47.59900000     -34.03690000     -72.16790000
C      -47.07680000     -35.34500000     -72.08730000
H      -45.46490000     -36.64730000     -72.72930000
H      -45.25590000     -32.57170000     -74.22030000
H      -48.46780000     -33.66420000     -71.59230000
H      -47.51540000     -36.07650000     -71.48610000
C      -47.50560000     -31.65420000     -73.12640000
H      -48.23340000     -31.48310000     -72.32310000
H      -47.90650000     -31.60880000     -74.16780000
C      -43.95240000     -34.90830000     -74.25150000
H      -43.80560000     -35.85610000     -74.79700000
H      -43.70850000     -34.22080000     -75.05130000
S      -46.22920000     -30.36580000     -73.01940000
S      -42.54370000     -34.83740000     -73.00710000
C      -45.93290000     -29.87980000     -71.32810000
H      -45.49390000     -28.90010000     -71.54570000
H      -46.79690000     -29.69580000     -70.71460000
C      -42.69250000     -33.09820000     -72.23850000
H      -43.72880000     -32.69370000     -72.38860000
H      -41.95010000     -32.46280000     -72.78010000
C      -42.47480000     -33.12770000     -70.72490000
H      -41.53100000     -33.55570000     -70.46970000
H      -42.47250000     -32.14260000     -70.25910000
C      -44.83540000     -30.74190000     -70.56900000
H      -44.48600000     -30.11130000     -69.76690000
H      -44.21700000     -31.13370000     -71.36400000
C      -45.50590000     -31.87400000     -69.83370000
C      -46.79480000     -31.85800000     -69.35940000
C      -44.93990000     -33.23100000     -69.78870000
H      -47.49000000     -31.09160000     -69.44650000
C      -45.74570000     -34.09590000     -69.06920000
C      -43.61090000     -33.87050000     -69.99110000
C      -43.53740000     -35.14810000     -69.54370000
S      -47.33080000     -33.41360000     -68.68900000
S      -45.01170000     -35.69560000     -68.70730000
H      -42.68050000     -35.83210000     -69.58010000
