40
Properties=species:S:1:pos:R:3 #=T CELL(abcABC):=T 1.889726e+02=T 90.00000=T Traj:=T positionsangstrom=T Step:=T 0=T Bead:=T pbc="F F F"
C      -45.67260000     -35.64930000     -72.91730000
C      -44.99490000     -34.65980000     -73.62640000
C      -45.60060000     -33.36360000     -73.73410000
C      -46.75540000     -33.14020000     -72.94560000
C      -47.39430000     -34.09770000     -72.19540000
C      -46.82680000     -35.37660000     -72.16120000
H      -45.16120000     -36.59330000     -72.87560000
H      -45.19260000     -32.49540000     -74.12650000
H      -48.37450000     -33.91510000     -71.79990000
H      -47.43130000     -36.17520000     -71.66350000
C      -47.33490000     -31.77200000     -73.26890000
H      -48.31540000     -31.53290000     -72.74580000
H      -47.57790000     -31.76630000     -74.30570000
C      -43.61600000     -34.96040000     -74.27850000
H      -43.57090000     -35.96230000     -74.56980000
H      -43.50680000     -34.39370000     -75.15530000
S      -46.21440000     -30.27630000     -73.13620000
S      -42.28230000     -34.65640000     -73.03110000
C      -45.98440000     -29.74900000     -71.27270000
H      -45.53740000     -28.73690000     -71.29260000
H      -47.00540000     -29.72880000     -70.78250000
C      -42.54840000     -33.06620000     -72.25440000
H      -43.48750000     -32.65290000     -72.64260000
H      -41.76050000     -32.27960000     -72.49020000
C      -42.68270000     -33.10600000     -70.73100000
H      -41.77380000     -33.48580000     -70.29500000
H      -42.75040000     -32.07850000     -70.41630000
C      -45.15730000     -30.72430000     -70.41760000
H      -44.63800000     -30.09820000     -69.64620000
H      -44.27270000     -31.05210000     -70.96910000
C      -45.84020000     -31.95400000     -69.84330000
C      -47.10090000     -32.00370000     -69.27380000
C      -45.13650000     -33.22850000     -69.68100000
H      -47.78790000     -31.10960000     -69.26380000
C      -45.88620000     -34.12820000     -68.89540000
C      -43.91170000     -33.86350000     -70.10690000
C      -43.72180000     -35.13130000     -69.64230000
S      -47.49420000     -33.56560000     -68.49000000
S      -45.14220000     -35.71200000     -68.73370000
H      -42.83640000     -35.74230000     -69.71080000
