40
Properties=species:S:1:pos:R:3 #=T CELL(abcABC):=T 1.889726e+02=T 90.00000=T Traj:=T positionsangstrom=T Step:=T 0=T Bead:=T pbc="F F F"
C      -45.22100000     -35.45720000     -72.65740000
C      -44.77160000     -34.37800000     -73.40780000
C      -45.58360000     -33.28600000     -73.64290000
C      -46.85670000     -33.21920000     -73.03600000
C      -47.34060000     -34.34720000     -72.30150000
C      -46.47440000     -35.46620000     -72.12320000
H      -44.59750000     -36.33830000     -72.71030000
H      -45.25760000     -32.64300000     -74.35870000
H      -48.26590000     -34.33550000     -71.75710000
H      -46.83450000     -36.44140000     -71.65740000
C      -47.62190000     -31.91960000     -73.18810000
H      -48.22800000     -31.76350000     -72.30270000
H      -48.12640000     -31.93290000     -74.14040000
C      -43.34460000     -34.36630000     -73.92530000
H      -43.21140000     -35.30310000     -74.56580000
H      -43.21030000     -33.51680000     -74.64920000
S      -46.53400000     -30.36960000     -73.29770000
S      -42.06320000     -34.38910000     -72.61240000
C      -46.41470000     -29.98430000     -71.52060000
H      -46.03300000     -28.97120000     -71.40970000
H      -47.43300000     -29.93620000     -71.12190000
C      -42.30180000     -32.73860000     -71.88920000
H      -43.00630000     -32.24080000     -72.42100000
H      -41.35030000     -32.21480000     -71.89680000
C      -42.72090000     -32.94500000     -70.36220000
H      -41.86950000     -33.29960000     -69.83040000
H      -43.00110000     -31.93830000     -69.95970000
C      -45.33450000     -30.97080000     -70.82380000
H      -44.82450000     -30.32600000     -70.13610000
H      -44.69020000     -31.41370000     -71.57360000
C      -45.91320000     -32.10170000     -70.06580000
C      -47.17390000     -32.12830000     -69.45590000
C      -45.17450000     -33.35100000     -69.78750000
H      -47.90840000     -31.37420000     -69.45420000
C      -45.95750000     -34.32170000     -69.19410000
C      -43.85140000     -33.84110000     -70.03880000
C      -43.69470000     -35.16290000     -69.65940000
S      -47.49980000     -33.63530000     -68.58060000
S      -45.20300000     -35.81450000     -68.99790000
H      -42.75630000     -35.73400000     -69.68770000
