40
Properties=species:S:1:pos:R:3 #=T CELL(abcABC):=T 1.889726e+02=T 90.00000=T Traj:=T positionsangstrom=T Step:=T 0=T Bead:=T pbc="F F F"
C      -45.14320000     -35.49320000     -72.89780000
C      -44.63950000     -34.30210000     -73.41910000
C      -45.43580000     -33.19270000     -73.57410000
C      -46.75300000     -33.20590000     -73.09860000
C      -47.26130000     -34.41690000     -72.56220000
C      -46.41950000     -35.49830000     -72.36230000
H      -44.40000000     -36.28850000     -72.63460000
H      -44.97710000     -32.32350000     -73.87540000
H      -48.26540000     -34.43970000     -72.08260000
H      -46.77720000     -36.38760000     -71.84940000
C      -47.64230000     -32.01880000     -73.21360000
H      -48.34990000     -32.00310000     -72.41540000
H      -48.35520000     -32.02630000     -74.07130000
C      -43.23070000     -34.39800000     -73.90580000
H      -43.12100000     -35.31890000     -74.44800000
H      -42.89270000     -33.57570000     -74.47300000
S      -46.75220000     -30.39520000     -73.30700000
S      -41.98420000     -34.47590000     -72.49990000
C      -46.33670000     -29.95580000     -71.52570000
H      -45.72230000     -29.05520000     -71.65670000
H      -47.23840000     -29.68990000     -70.86650000
C      -42.35000000     -32.85650000     -71.79820000
H      -43.19480000     -32.40720000     -72.40460000
H      -41.50190000     -32.14410000     -72.00250000
C      -42.64920000     -32.90430000     -70.25720000
H      -41.75230000     -33.24920000     -69.74210000
H      -42.64920000     -31.90090000     -69.86680000
C      -45.32600000     -30.89740000     -70.71660000
H      -44.81680000     -30.30460000     -69.90840000
H      -44.61560000     -31.16260000     -71.57860000
C      -46.02940000     -32.08290000     -70.03660000
C      -47.38720000     -32.23060000     -69.66780000
C      -45.21770000     -33.24700000     -69.62070000
H      -48.26080000     -31.56990000     -69.94860000
C      -45.99720000     -34.30930000     -69.17450000
C      -43.86040000     -33.67700000     -69.76000000
C      -43.60140000     -34.95050000     -69.36220000
S      -47.70490000     -33.76600000     -68.98570000
S      -45.06680000     -35.71360000     -68.75810000
H      -42.70160000     -35.49620000     -69.33740000
