40
Properties=species:S:1:pos:R:3 #=T CELL(abcABC):=T 1.889726e+02=T 90.00000=T Traj:=T positionsangstrom=T Step:=T 0=T Bead:=T pbc="F F F"
C      -46.26940000     -35.67130000     -72.48740000
C      -45.65760000     -34.72210000     -73.38310000
C      -46.32330000     -33.55060000     -73.65250000
C      -47.31830000     -33.06300000     -72.78470000
C      -47.82630000     -33.93980000     -71.77910000
C      -47.34200000     -35.21010000     -71.72250000
H      -45.96250000     -36.63310000     -72.34100000
H      -45.92970000     -32.85340000     -74.40830000
H      -48.60820000     -33.66280000     -71.09050000
H      -47.66110000     -35.84310000     -70.90660000
C      -47.86590000     -31.69720000     -72.89770000
H      -48.60740000     -31.44030000     -72.05440000
H      -48.33820000     -31.60910000     -73.83670000
C      -44.53230000     -35.09250000     -74.32450000
H      -44.60090000     -36.15770000     -74.55290000
H      -44.54500000     -34.45840000     -75.27080000
S      -46.50850000     -30.39460000     -73.03620000
S      -42.83380000     -35.03010000     -73.47540000
C      -46.05270000     -29.89940000     -71.27370000
H      -46.00360000     -28.77230000     -71.25660000
H      -47.00910000     -30.12610000     -70.70410000
C      -42.69500000     -33.25730000     -72.89850000
H      -43.63300000     -32.82950000     -73.35660000
H      -41.81930000     -32.73120000     -73.34550000
C      -42.58430000     -33.09830000     -71.37330000
H      -41.58930000     -33.46680000     -71.04300000
H      -42.59830000     -32.03670000     -71.07440000
C      -44.89210000     -30.54770000     -70.58670000
H      -44.63080000     -29.85360000     -69.78230000
H      -44.07460000     -30.71260000     -71.29790000
C      -45.27260000     -31.87790000     -69.80040000
C      -46.29970000     -31.80870000     -68.89890000
C      -44.65910000     -33.13250000     -69.82720000
H      -46.94940000     -30.98570000     -68.74760000
C      -45.22560000     -34.05910000     -68.84000000
C      -43.56870000     -33.77020000     -70.46800000
C      -43.31060000     -35.06090000     -70.03500000
S      -46.60020000     -33.31870000     -68.04440000
S      -44.48820000     -35.65770000     -68.89270000
H      -42.53400000     -35.69660000     -70.37880000
