40
Properties=species:S:1:pos:R:3 #=T CELL(abcABC):=T 1.889726e+02=T 90.00000=T Traj:=T positionsangstrom=T Step:=T 0=T Bead:=T pbc="F F F"
C      -44.97100000     -30.83640000     -71.31640000
C      -45.71530000     -31.15210000     -72.47410000
C      -45.05060000     -31.92350000     -73.46280000
C      -43.68000000     -32.35200000     -73.21540000
C      -42.94170000     -32.02070000     -72.02570000
C      -43.68590000     -31.30940000     -71.11750000
H      -45.41070000     -30.31120000     -70.46430000
H      -45.41080000     -31.91210000     -74.51180000
H      -41.89570000     -32.25300000     -71.87420000
H      -43.31200000     -31.08340000     -70.12550000
C      -42.90630000     -32.94430000     -74.39120000
H      -41.83260000     -32.74240000     -74.30560000
H      -43.27000000     -32.46570000     -75.36680000
C      -47.09080000     -30.68220000     -72.69370000
H      -47.16400000     -29.59410000     -72.65630000
H      -47.49180000     -30.92300000     -73.73530000
S      -43.19590000     -34.78740000     -74.60760000
S      -48.23990000     -31.44760000     -71.42100000
C      -43.04500000     -35.39620000     -72.86760000
H      -42.59960000     -36.39550000     -72.92590000
H      -42.32010000     -34.69780000     -72.30440000
C      -48.64630000     -33.08780000     -72.19050000
H      -48.87840000     -32.87050000     -73.21290000
H      -49.57200000     -33.41300000     -71.75610000
C      -47.48310000     -34.03680000     -71.98290000
H      -47.75990000     -35.04940000     -72.37760000
H      -46.69010000     -33.76400000     -72.68040000
C      -44.48790000     -35.46520000     -72.23920000
H      -44.97430000     -36.46570000     -72.51860000
H      -45.10070000     -34.81360000     -72.85210000
C      -44.57540000     -35.08530000     -70.80800000
C      -43.42110000     -35.18980000     -69.99710000
C      -45.70490000     -34.49980000     -70.12010000
H      -42.46660000     -35.61520000     -70.24830000
C      -45.43590000     -34.38780000     -68.78080000
C      -47.04730000     -34.13110000     -70.50920000
C      -47.70410000     -33.57990000     -69.41670000
S      -43.75410000     -34.78580000     -68.30550000
S      -46.78630000     -33.65840000     -67.90000000
H      -48.66720000     -33.07530000     -69.48470000
