40
Properties=species:S:1:pos:R:3 #=T CELL(abcABC):=T 1.889726e+02=T 90.00000=T Traj:=T positionsangstrom=T Step:=T 0=T Bead:=T pbc="F F F"
C      -44.73070000     -30.33890000     -71.61460000
C      -45.66120000     -30.93400000     -72.49920000
C      -45.16280000     -31.49980000     -73.69640000
C      -43.80730000     -31.64760000     -73.98170000
C      -42.90200000     -31.00730000     -73.13570000
C      -43.40640000     -30.34160000     -71.99110000
H      -45.12250000     -29.89620000     -70.69780000
H      -45.90200000     -31.94290000     -74.42000000
H      -41.83940000     -31.04850000     -73.32880000
H      -42.63750000     -29.73930000     -71.43960000
C      -43.41480000     -32.33460000     -75.28020000
H      -42.32040000     -32.24340000     -75.43680000
H      -43.83120000     -32.07510000     -76.23080000
C      -47.21200000     -30.86220000     -72.41900000
H      -47.48140000     -29.86190000     -72.80900000
H      -47.67370000     -31.67050000     -72.96940000
S      -43.64840000     -34.22110000     -75.00460000
S      -47.78650000     -31.11550000     -70.72190000
C      -43.42380000     -34.59560000     -73.23700000
H      -43.08890000     -35.67150000     -73.21480000
H      -42.60350000     -33.95690000     -72.90550000
C      -48.65300000     -32.69860000     -70.95200000
H      -49.48550000     -32.60400000     -71.70010000
H      -49.18080000     -32.91620000     -70.04060000
C      -47.77970000     -33.96430000     -71.24710000
H      -48.46130000     -34.80900000     -71.52540000
H      -47.12560000     -33.80970000     -72.13490000
C      -44.65210000     -34.39400000     -72.33820000
H      -45.46170000     -35.19430000     -72.72150000
H      -45.02410000     -33.42120000     -72.55120000
C      -44.52180000     -34.73970000     -70.85780000
C      -43.39290000     -35.24510000     -70.27140000
C      -45.60150000     -34.76980000     -69.87280000
H      -42.37570000     -35.35640000     -70.66750000
C      -45.27960000     -35.33960000     -68.66050000
C      -47.03750000     -34.39530000     -69.96180000
C      -47.60970000     -34.57730000     -68.68410000
S      -43.63870000     -35.91730000     -68.61540000
S      -46.54950000     -35.28840000     -67.48950000
H      -48.62000000     -34.32680000     -68.41060000
