40
Properties=species:S:1:pos:R:3 #=T CELL(abcABC):=T 1.889726e+02=T 90.00000=T Traj:=T positionsangstrom=T Step:=T 0=T Bead:=T pbc="F F F"
C      -48.16410000     -34.86830000     -74.43980000
C      -46.80540000     -35.11330000     -74.18060000
C      -46.39760000     -35.75880000     -72.99460000
C      -47.39860000     -35.95260000     -71.98300000
C      -48.69670000     -35.66790000     -72.29800000
C      -49.12580000     -35.10560000     -73.49580000
H      -48.40030000     -34.25380000     -75.33080000
H      -45.44010000     -36.19140000     -72.80120000
H      -49.44760000     -35.90960000     -71.58910000
H      -50.19550000     -34.99290000     -73.72780000
C      -47.02570000     -36.55630000     -70.62020000
H      -46.27750000     -37.32030000     -70.75570000
H      -47.89020000     -36.91620000     -70.10410000
C      -45.81460000     -34.84900000     -75.23690000
H      -44.95650000     -35.54070000     -75.22270000
H      -46.15640000     -34.86650000     -76.30110000
S      -46.06820000     -35.33260000     -69.51440000
S      -45.08120000     -33.02870000     -75.25520000
C      -47.22810000     -33.93890000     -69.38890000
H      -48.18430000     -34.20250000     -69.75040000
H      -47.36190000     -33.70720000     -68.28470000
C      -43.95380000     -32.85280000     -73.78640000
H      -43.50940000     -31.95270000     -73.97660000
H      -43.16470000     -33.61810000     -73.79440000
C      -44.64250000     -32.76310000     -72.35250000
H      -45.50410000     -32.11810000     -72.35000000
H      -45.04430000     -33.73110000     -72.24910000
C      -46.71340000     -32.52730000     -70.00890000
H      -47.53110000     -31.80310000     -69.77870000
H      -46.49870000     -32.69370000     -71.09330000
C      -45.52040000     -31.96090000     -69.34500000
C      -45.39870000     -31.43950000     -68.06270000
C      -44.23430000     -31.97860000     -69.94390000
H      -46.30540000     -31.29280000     -67.40910000
C      -43.22260000     -31.50370000     -69.18060000
C      -43.71240000     -32.36860000     -71.23990000
C      -42.35450000     -32.16220000     -71.35220000
S      -43.79100000     -30.92650000     -67.63430000
S      -41.64320000     -31.41510000     -69.92450000
H      -41.78320000     -32.17040000     -72.29060000
