40
Properties=species:S:1:pos:R:3 #=T CELL(abcABC):=T 1.889726e+02=T 90.00000=T Traj:=T positionsangstrom=T Step:=T 0=T Bead:=T pbc="F F F"
C      -44.76600000     -30.19020000     -71.00030000
C      -45.66760000     -30.51600000     -72.00620000
C      -45.18130000     -31.05090000     -73.17670000
C      -43.79810000     -31.18190000     -73.37250000
C      -42.89380000     -30.75370000     -72.41250000
C      -43.37670000     -30.30440000     -71.17420000
H      -45.15140000     -29.95290000     -69.98890000
H      -45.89140000     -31.42510000     -73.99120000
H      -41.81830000     -30.96810000     -72.72980000
H      -42.77770000     -30.01340000     -70.34510000
C      -43.33100000     -31.76990000     -74.68240000
H      -42.18830000     -31.54450000     -74.66040000
H      -43.85670000     -31.25210000     -75.43610000
C      -47.15580000     -30.34450000     -71.80100000
H      -47.44650000     -29.29500000     -71.60730000
H      -47.71930000     -30.63740000     -72.70000000
S      -43.68400000     -33.61400000     -74.97790000
S      -47.83650000     -31.27070000     -70.31610000
C      -43.42080000     -34.33380000     -73.30870000
H      -42.69890000     -35.09850000     -73.46150000
H      -43.13310000     -33.47120000     -72.71460000
C      -48.70400000     -32.71910000     -71.16890000
H      -49.25200000     -32.26620000     -72.01140000
H      -49.44060000     -32.96200000     -70.41040000
C      -47.72810000     -33.84980000     -71.48090000
H      -48.35250000     -34.65730000     -71.89750000
H      -47.06760000     -33.50940000     -72.25940000
C      -44.76950000     -34.87740000     -72.77100000
H      -45.28880000     -35.49250000     -73.47570000
H      -45.42790000     -33.95410000     -72.72550000
C      -44.75680000     -35.52870000     -71.40300000
C      -43.69630000     -36.26490000     -71.01400000
C      -45.69680000     -35.24870000     -70.36280000
H      -42.87540000     -36.73620000     -71.56490000
C      -45.27930000     -35.77850000     -69.11190000
C      -46.86980000     -34.41420000     -70.26690000
C      -47.20820000     -34.15540000     -68.93340000
S      -43.84910000     -36.77690000     -69.30020000
S      -46.22330000     -35.14590000     -67.79160000
H      -48.19490000     -33.67560000     -68.52210000
