40
Properties=species:S:1:pos:R:3 #=T CELL(abcABC):=T 1.889726e+02=T 90.00000=T Traj:=T positionsangstrom=T Step:=T 0=T Bead:=T pbc="F F F"
C      -46.57040000     -35.57930000     -72.12570000
C      -45.95080000     -34.82220000     -73.18440000
C      -46.50480000     -33.53380000     -73.44570000
C      -47.53690000     -32.98460000     -72.64180000
C      -48.00270000     -33.70090000     -71.56770000
C      -47.57560000     -34.99540000     -71.29580000
H      -46.16780000     -36.53030000     -71.83130000
H      -46.16770000     -32.88410000     -74.25850000
H      -48.88790000     -33.39510000     -71.01830000
H      -47.88660000     -35.57680000     -70.40300000
C      -48.04470000     -31.56880000     -72.92320000
H      -48.64070000     -31.18010000     -72.11120000
H      -48.67570000     -31.58250000     -73.78390000
C      -44.88930000     -35.32280000     -74.18840000
H      -44.99660000     -36.39180000     -74.32410000
H      -45.01420000     -34.89600000     -75.20700000
S      -46.60000000     -30.35790000     -73.27110000
S      -43.14520000     -35.19960000     -73.51390000
C      -46.03840000     -29.97830000     -71.54370000
H      -45.80050000     -28.98970000     -71.66950000
H      -46.89840000     -30.16460000     -70.85810000
C      -43.05460000     -33.44670000     -73.02430000
H      -44.04100000     -33.04260000     -72.98290000
H      -42.43670000     -32.92670000     -73.80400000
C      -42.38470000     -33.21530000     -71.61390000
H      -41.39340000     -33.62280000     -71.52210000
H      -42.26580000     -32.21140000     -71.30710000
C      -44.91660000     -30.83700000     -71.07900000
H      -44.01720000     -30.22060000     -70.72650000
H      -44.43680000     -31.45580000     -71.95100000
C      -45.12870000     -31.87560000     -69.97230000
C      -46.09960000     -31.79220000     -68.99300000
C      -44.37310000     -33.10170000     -69.85260000
H      -46.90100000     -31.04840000     -68.90880000
C      -44.81130000     -33.84270000     -68.81320000
C      -43.29940000     -33.89560000     -70.54820000
C      -43.08140000     -35.14880000     -70.03110000
S      -46.20790000     -33.22330000     -67.94450000
S      -44.20740000     -35.48550000     -68.74300000
H      -42.29580000     -35.85520000     -70.28170000
