40
Properties=species:S:1:pos:R:3 #=T CELL(abcABC):=T 1.889726e+02=T 90.00000=T Traj:=T positionsangstrom=T Step:=T 0=T Bead:=T pbc="F F F"
C      -46.45010000     -35.54710000     -71.93500000
C      -45.94700000     -35.03790000     -73.12260000
C      -46.48070000     -33.81560000     -73.62020000
C      -47.35670000     -33.03210000     -72.81160000
C      -47.69360000     -33.50890000     -71.54780000
C      -47.28080000     -34.77220000     -71.13380000
H      -46.20190000     -36.52270000     -71.59740000
H      -46.27910000     -33.47410000     -74.66490000
H      -48.27830000     -32.85860000     -70.85260000
H      -47.64140000     -35.19480000     -70.19230000
C      -47.82890000     -31.68460000     -73.28440000
H      -48.65800000     -31.28010000     -72.62380000
H      -48.21210000     -31.73020000     -74.34270000
C      -44.83860000     -35.66950000     -73.92870000
H      -45.02710000     -36.74740000     -73.98710000
H      -44.76880000     -35.28040000     -74.91620000
S      -46.43300000     -30.36130000     -73.34390000
S      -43.07750000     -35.43850000     -73.37250000
C      -46.20010000     -29.92400000     -71.57100000
H      -45.95710000     -28.84400000     -71.52940000
H      -47.08580000     -30.07690000     -71.01070000
C      -43.16360000     -33.65160000     -73.14580000
H      -44.24530000     -33.39670000     -73.30630000
H      -42.59580000     -33.10840000     -73.90950000
C      -42.58710000     -33.12990000     -71.72620000
H      -41.59370000     -33.50930000     -71.49320000
H      -42.54580000     -32.10620000     -71.66910000
C      -45.05240000     -30.68810000     -70.90400000
H      -44.48140000     -29.89450000     -70.31440000
H      -44.34000000     -30.89400000     -71.60890000
C      -45.37400000     -31.83830000     -69.94620000
C      -46.23360000     -31.72220000     -68.85020000
C      -44.62030000     -33.09110000     -69.90070000
H      -47.00950000     -31.00550000     -68.74990000
C      -45.04450000     -33.90240000     -68.89080000
C      -43.48230000     -33.62450000     -70.62050000
C      -43.21870000     -34.88880000     -70.14890000
S      -46.31190000     -33.19860000     -67.93280000
S      -44.10350000     -35.32630000     -68.71850000
H      -42.44040000     -35.53720000     -70.60640000
