40
Properties=species:S:1:pos:R:3 #=T CELL(abcABC):=T 1.889726e+02=T 90.00000=T Traj:=T positionsangstrom=T Step:=T 0=T Bead:=T pbc="F F F"
C      -46.46730000     -35.55870000     -72.00400000
C      -45.92680000     -34.95200000     -73.11720000
C      -46.35590000     -33.66520000     -73.53360000
C      -47.40110000     -33.02760000     -72.82820000
C      -47.97350000     -33.69810000     -71.73400000
C      -47.46710000     -34.92980000     -71.27520000
H      -46.04600000     -36.49650000     -71.64230000
H      -45.88030000     -33.20990000     -74.41360000
H      -48.82810000     -33.17560000     -71.23350000
H      -47.91660000     -35.40300000     -70.47080000
C      -47.85930000     -31.65210000     -73.27270000
H      -48.60340000     -31.22980000     -72.62120000
H      -48.29110000     -31.76250000     -74.25720000
C      -45.02440000     -35.71260000     -73.97310000
H      -45.14710000     -36.75190000     -73.80160000
H      -45.17550000     -35.54530000     -75.06250000
S      -46.45620000     -30.47490000     -73.46310000
S      -43.21520000     -35.30230000     -73.36220000
C      -46.18440000     -30.06540000     -71.65220000
H      -45.97800000     -28.98710000     -71.71600000
H      -47.10910000     -30.19750000     -71.02190000
C      -43.05330000     -33.40100000     -73.16450000
H      -43.93370000     -32.88780000     -73.45100000
H      -42.24840000     -33.10950000     -73.84030000
C      -42.62990000     -33.16470000     -71.67730000
H      -41.54830000     -33.44350000     -71.74070000
H      -42.56820000     -32.03330000     -71.56340000
C      -45.01030000     -30.73360000     -70.95450000
H      -44.54620000     -29.96950000     -70.27100000
H      -44.12210000     -31.03980000     -71.53580000
C      -45.29300000     -31.93040000     -70.04370000
C      -46.22870000     -31.71870000     -69.01200000
C      -44.51420000     -33.09220000     -69.84050000
H      -46.97950000     -30.94100000     -68.93920000
C      -44.95140000     -33.89490000     -68.73950000
C      -43.37070000     -33.65560000     -70.54940000
C      -43.00200000     -34.86800000     -69.90310000
S      -46.26030000     -33.09060000     -67.88350000
S      -44.05350000     -35.37870000     -68.57500000
H      -42.21880000     -35.48410000     -70.23410000
