40
Properties=species:S:1:pos:R:3 #=T CELL(abcABC):=T 1.889726e+02=T 90.00000=T Traj:=T positionsangstrom=T Step:=T 0=T Bead:=T pbc="F F F"
C      -44.63950000     -29.48630000     -70.46910000
C      -45.73850000     -29.92830000     -71.31480000
C      -45.37390000     -30.50320000     -72.55790000
C      -44.05010000     -30.68920000     -72.92380000
C      -43.02740000     -30.48560000     -72.02760000
C      -43.32470000     -29.78740000     -70.83620000
H      -44.81620000     -29.09460000     -69.44770000
H      -46.09490000     -30.82880000     -73.28040000
H      -41.92650000     -30.65460000     -72.24390000
H      -42.54250000     -29.60850000     -70.15060000
C      -43.71330000     -31.17590000     -74.27450000
H      -42.67120000     -31.30000000     -74.37150000
H      -44.17000000     -30.65280000     -75.09470000
C      -47.20500000     -29.68780000     -70.91250000
H      -47.24380000     -28.77530000     -70.27000000
H      -47.82000000     -29.72950000     -71.82640000
S      -44.47010000     -32.82290000     -74.76040000
S      -47.73780000     -31.08810000     -69.80460000
C      -43.71580000     -33.95840000     -73.37750000
H      -42.65020000     -34.27880000     -73.46200000
H      -43.75630000     -33.35760000     -72.45590000
C      -47.83300000     -32.55190000     -70.93660000
H      -48.36320000     -32.28860000     -71.86410000
H      -48.53490000     -33.21830000     -70.42890000
C      -46.43120000     -33.20690000     -71.13800000
H      -46.36410000     -33.48800000     -72.22990000
H      -45.67790000     -32.36090000     -70.93380000
C      -44.75460000     -35.23350000     -73.29290000
H      -44.27070000     -35.86430000     -74.01940000
H      -45.79070000     -34.95910000     -73.51610000
C      -44.75630000     -36.00310000     -71.98520000
C      -44.29130000     -37.28430000     -72.00730000
C      -45.34840000     -35.57230000     -70.75720000
H      -43.66360000     -37.67990000     -72.78080000
C      -45.16140000     -36.45400000     -69.74110000
C      -46.13180000     -34.37260000     -70.27870000
C      -46.48200000     -34.45410000     -68.96430000
S      -44.40350000     -37.96190000     -70.29480000
S      -46.02080000     -36.01410000     -68.26190000
H      -46.82920000     -33.59650000     -68.39710000
