40
Properties=species:S:1:pos:R:3 #=T CELL(abcABC):=T 1.889726e+02=T 90.00000=T Traj:=T positionsangstrom=T Step:=T 0=T Bead:=T pbc="F F F"
C      -44.52610000     -29.64280000     -70.49340000
C      -45.63090000     -29.94040000     -71.30750000
C      -45.40020000     -30.46150000     -72.55760000
C      -44.02670000     -30.71990000     -73.03820000
C      -42.95540000     -30.45400000     -72.15660000
C      -43.18760000     -29.95550000     -70.87350000
H      -44.69150000     -29.29580000     -69.52240000
H      -46.30300000     -30.57990000     -73.18740000
H      -41.95330000     -30.64870000     -72.49850000
H      -42.49540000     -29.64600000     -70.13120000
C      -43.70590000     -31.18360000     -74.43000000
H      -42.62340000     -31.35560000     -74.66650000
H      -44.00740000     -30.45120000     -75.19860000
C      -47.00820000     -29.71780000     -70.80480000
H      -47.21220000     -28.72800000     -70.29970000
H      -47.73790000     -29.77770000     -71.67160000
S      -44.59940000     -32.76770000     -74.69340000
S      -47.55850000     -31.01400000     -69.61710000
C      -43.95660000     -33.78010000     -73.27170000
H      -42.92470000     -34.10980000     -73.46010000
H      -43.98930000     -33.29620000     -72.27310000
C      -47.87730000     -32.50570000     -70.62350000
H      -48.41490000     -32.14230000     -71.51670000
H      -48.50840000     -33.24200000     -70.13160000
C      -46.64250000     -33.26640000     -71.16690000
H      -46.90040000     -33.56800000     -72.16690000
H      -45.82890000     -32.57840000     -71.24380000
C      -44.81920000     -35.07070000     -73.30320000
H      -44.44980000     -35.65500000     -74.14430000
H      -45.82790000     -34.92260000     -73.70470000
C      -44.80420000     -35.88990000     -72.03850000
C      -44.11260000     -37.08270000     -72.00390000
C      -45.43230000     -35.58640000     -70.79290000
H      -43.72550000     -37.59320000     -72.87470000
C      -45.23940000     -36.53700000     -69.79720000
C      -46.31100000     -34.50980000     -70.30610000
C      -46.68100000     -34.66400000     -68.95800000
S      -44.28090000     -37.87760000     -70.43580000
S      -46.00910000     -36.17870000     -68.31540000
H      -47.41340000     -34.10780000     -68.46190000
