40
Properties=species:S:1:pos:R:3 #=T CELL(abcABC):=T 1.889726e+02=T 90.00000=T Traj:=T positionsangstrom=T Step:=T 0=T Bead:=T pbc="F F F"
C      -44.30310000     -29.72520000     -70.38660000
C      -45.44920000     -30.19090000     -71.09050000
C      -45.29020000     -30.47160000     -72.39440000
C      -44.04690000     -30.50780000     -73.04880000
C      -42.90230000     -30.08190000     -72.36680000
C      -43.04340000     -29.72940000     -71.05480000
H      -44.33990000     -29.27750000     -69.44280000
H      -46.13580000     -30.73620000     -73.02690000
H      -42.01780000     -30.14220000     -72.97660000
H      -42.20160000     -29.28490000     -70.44820000
C      -43.88820000     -30.96870000     -74.52760000
H      -42.81920000     -30.93120000     -74.80640000
H      -44.53310000     -30.39280000     -75.16210000
C      -46.81380000     -30.13740000     -70.52910000
H      -46.99180000     -29.16240000     -70.00120000
H      -47.48280000     -30.13850000     -71.43360000
S      -44.63450000     -32.56360000     -74.88860000
S      -47.37640000     -31.42460000     -69.37610000
C      -44.04120000     -33.63910000     -73.51610000
H      -43.13770000     -34.15680000     -73.76080000
H      -43.88800000     -33.05270000     -72.63620000
C      -48.17920000     -32.63430000     -70.53160000
H      -48.82570000     -32.07020000     -71.22460000
H      -48.96230000     -33.26220000     -70.06620000
C      -47.27810000     -33.60650000     -71.20300000
H      -47.95820000     -34.08480000     -72.00340000
H      -46.51100000     -33.14290000     -71.80090000
C      -44.98560000     -34.86150000     -73.32520000
H      -44.77200000     -35.61240000     -74.20840000
H      -46.01890000     -34.56510000     -73.47970000
C      -44.83140000     -35.72790000     -72.07210000
C      -43.90940000     -36.77340000     -71.97510000
C      -45.58120000     -35.56150000     -70.83210000
H      -43.30440000     -37.26180000     -72.72280000
C      -45.17890000     -36.50540000     -69.87650000
C      -46.67020000     -34.69500000     -70.36300000
C      -46.95890000     -34.92110000     -69.01310000
S      -43.94190000     -37.59550000     -70.36150000
S      -46.02930000     -36.33740000     -68.35670000
H      -47.60150000     -34.51720000     -68.27940000
