40
Properties=species:S:1:pos:R:3 #=T CELL(abcABC):=T 1.889726e+02=T 90.00000=T Traj:=T positionsangstrom=T Step:=T 0=T Bead:=T pbc="F F F"
C      -44.63750000     -30.55320000     -69.82010000
C      -45.72120000     -30.29450000     -70.75210000
C      -45.46690000     -30.29590000     -72.15110000
C      -44.19550000     -30.56710000     -72.61780000
C      -43.12530000     -30.67660000     -71.75120000
C      -43.38700000     -30.74790000     -70.37430000
H      -44.65300000     -30.43240000     -68.75440000
H      -46.20610000     -30.25890000     -72.84110000
H      -42.08270000     -30.59900000     -72.13430000
H      -42.53490000     -30.91530000     -69.64630000
C      -44.02840000     -30.77760000     -74.07080000
H      -43.06380000     -30.70500000     -74.50420000
H      -44.67570000     -30.10960000     -74.72850000
C      -47.14670000     -29.95950000     -70.28420000
H      -47.26960000     -29.08850000     -69.59010000
H      -47.84430000     -29.86740000     -71.15560000
S      -44.69070000     -32.46630000     -74.70000000
S      -47.69100000     -31.48490000     -69.44080000
C      -44.12910000     -33.76140000     -73.52170000
H      -43.09960000     -34.06410000     -73.74480000
H      -44.15060000     -33.35000000     -72.46260000
C      -48.22540000     -32.54380000     -70.91950000
H      -48.59180000     -31.89050000     -71.73730000
H      -49.07120000     -33.12280000     -70.62500000
C      -47.14360000     -33.53920000     -71.59290000
H      -47.66330000     -34.15670000     -72.29840000
H      -46.39560000     -32.92620000     -72.06380000
C      -44.98830000     -35.03400000     -73.69420000
H      -44.59980000     -35.57910000     -74.58480000
H      -46.01390000     -34.84070000     -73.68590000
C      -44.80500000     -35.84920000     -72.42640000
C      -43.81120000     -36.77870000     -72.24350000
C      -45.43170000     -35.49160000     -71.11940000
H      -43.35770000     -37.39630000     -73.04150000
C      -44.80490000     -36.22180000     -70.09780000
C      -46.40470000     -34.57440000     -70.67990000
C      -46.64930000     -34.67100000     -69.31680000
S      -43.66270000     -37.39520000     -70.57150000
S      -45.62700000     -35.92600000     -68.56240000
H      -47.17700000     -34.07320000     -68.61840000
