40
Properties=species:S:1:pos:R:3 #=T CELL(abcABC):=T 1.889726e+02=T 90.00000=T Traj:=T positionsangstrom=T Step:=T 0=T Bead:=T pbc="F F F"
C      -48.08260000     -34.77900000     -74.32680000
C      -46.74500000     -35.11090000     -74.08120000
C      -46.36610000     -35.70890000     -72.85230000
C      -47.31150000     -35.81410000     -71.82650000
C      -48.65300000     -35.49140000     -72.16840000
C      -49.03420000     -34.91110000     -73.35480000
H      -48.31690000     -34.40520000     -75.30700000
H      -45.31100000     -36.08040000     -72.71490000
H      -49.50070000     -35.68730000     -71.44650000
H      -50.02960000     -34.60380000     -73.45180000
C      -47.00360000     -36.39010000     -70.47140000
H      -46.56620000     -37.39430000     -70.50500000
H      -47.98080000     -36.47900000     -69.85090000
C      -45.76470000     -34.88090000     -75.15550000
H      -44.88370000     -35.52100000     -74.95870000
H      -46.23370000     -35.16900000     -76.05950000
S      -45.95850000     -35.27010000     -69.49350000
S      -45.27090000     -33.04050000     -75.34380000
C      -47.05170000     -33.85100000     -68.91370000
H      -48.13810000     -34.11750000     -69.06670000
H      -46.89200000     -33.65020000     -67.86260000
C      -44.18790000     -32.70600000     -73.92390000
H      -43.58260000     -31.78770000     -74.01140000
H      -43.49210000     -33.46830000     -73.99060000
C      -44.94760000     -32.66470000     -72.54600000
H      -45.70590000     -31.86970000     -72.58240000
H      -45.28850000     -33.66400000     -72.43560000
C      -46.84290000     -32.53820000     -69.64100000
H      -47.68940000     -31.88700000     -69.35470000
H      -46.82850000     -32.79690000     -70.65830000
C      -45.52170000     -31.97850000     -69.26410000
C      -45.28950000     -31.35730000     -68.05670000
C      -44.26090000     -32.03530000     -70.04220000
H      -46.06270000     -31.21630000     -67.29340000
C      -43.13740000     -31.65650000     -69.30260000
C      -43.88120000     -32.39660000     -71.40380000
C      -42.52530000     -32.28810000     -71.62840000
S      -43.59780000     -31.02080000     -67.71360000
S      -41.65570000     -31.70180000     -70.22010000
H      -42.00020000     -32.60530000     -72.50730000
