40
Properties=species:S:1:pos:R:3 #=T CELL(abcABC):=T 1.889726e+02=T 90.00000=T Traj:=T positionsangstrom=T Step:=T 0=T Bead:=T pbc="F F F"
C      -44.54620000     -30.25220000     -69.95280000
C      -45.62600000     -30.25950000     -70.82390000
C      -45.41390000     -30.59560000     -72.16130000
C      -44.09830000     -30.59540000     -72.68730000
C      -42.99150000     -30.28210000     -71.81880000
C      -43.20240000     -30.16470000     -70.49660000
H      -44.66090000     -30.23910000     -68.84180000
H      -46.26720000     -30.59210000     -72.87860000
H      -41.99140000     -30.16560000     -72.20630000
H      -42.40010000     -30.06000000     -69.77320000
C      -43.98220000     -30.90070000     -74.21930000
H      -42.92710000     -31.15570000     -74.46510000
H      -44.28030000     -29.99010000     -74.72620000
C      -47.03650000     -30.05890000     -70.35540000
H      -47.12450000     -29.19140000     -69.68630000
H      -47.67480000     -29.92890000     -71.20230000
S      -45.00830000     -32.40120000     -74.78830000
S      -47.69960000     -31.55740000     -69.44910000
C      -44.19780000     -33.66840000     -73.70870000
H      -43.25870000     -33.80420000     -74.23690000
H      -44.20450000     -33.36700000     -72.67270000
C      -48.13700000     -32.67010000     -70.83370000
H      -48.60950000     -32.05210000     -71.56520000
H      -48.89290000     -33.38880000     -70.47940000
C      -47.02420000     -33.51250000     -71.44500000
H      -47.44920000     -33.98170000     -72.33650000
H      -46.22280000     -32.89600000     -71.81240000
C      -44.83060000     -35.09470000     -73.67470000
H      -44.35970000     -35.73340000     -74.40750000
H      -45.90450000     -35.11800000     -73.94170000
C      -44.69310000     -35.81040000     -72.30770000
C      -43.71550000     -36.73580000     -72.12970000
C      -45.43800000     -35.53470000     -71.05530000
H      -42.90950000     -36.78250000     -72.90920000
C      -44.95610000     -36.33690000     -70.02290000
C      -46.43560000     -34.60120000     -70.56540000
C      -46.67050000     -34.76910000     -69.20630000
S      -43.72870000     -37.46920000     -70.54530000
S      -45.70640000     -36.05070000     -68.46230000
H      -47.49190000     -34.27220000     -68.64650000
