40
Properties=species:S:1:pos:R:3 #=T CELL(abcABC):=T 1.889726e+02=T 90.00000=T Traj:=T positionsangstrom=T Step:=T 0=T Bead:=T pbc="F F F"
C      -48.14030000     -34.76080000     -74.40180000
C      -46.85050000     -35.24210000     -74.09860000
C      -46.45710000     -35.72670000     -72.81370000
C      -47.42080000     -35.65740000     -71.80360000
C      -48.66360000     -35.08790000     -72.13110000
C      -49.09500000     -34.75450000     -73.43060000
H      -48.28190000     -34.34790000     -75.41260000
H      -45.47490000     -36.05500000     -72.66590000
H      -49.39240000     -34.96130000     -71.35040000
H      -50.14030000     -34.51900000     -73.54590000
C      -46.98010000     -36.23040000     -70.45040000
H      -46.43370000     -37.09100000     -70.77110000
H      -47.80160000     -36.50450000     -69.81930000
C      -45.84170000     -34.96120000     -75.12980000
H      -44.80290000     -35.36190000     -74.85100000
H      -45.98320000     -35.34300000     -76.12470000
S      -45.76770000     -35.11670000     -69.50800000
S      -45.46280000     -33.15450000     -75.30510000
C      -47.00310000     -33.86290000     -68.92810000
H      -48.04030000     -34.26800000     -69.02780000
H      -46.79820000     -33.79050000     -67.87210000
C      -44.32240000     -32.83640000     -73.94880000
H      -43.84120000     -31.88100000     -74.26750000
H      -43.52340000     -33.63680000     -74.02830000
C      -44.93600000     -32.73590000     -72.56080000
H      -45.77750000     -32.03560000     -72.62740000
H      -45.48000000     -33.60240000     -72.14580000
C      -46.81840000     -32.47770000     -69.60640000
H      -47.56220000     -31.77030000     -69.10930000
H      -46.81220000     -32.41680000     -70.70030000
C      -45.45490000     -31.95440000     -69.26100000
C      -45.17790000     -31.55530000     -67.95850000
C      -44.27850000     -32.02390000     -70.14370000
H      -45.87080000     -31.64020000     -67.17250000
C      -43.16740000     -31.64320000     -69.35750000
C      -43.89890000     -32.29570000     -71.49730000
C      -42.54350000     -32.18370000     -71.66390000
S      -43.48420000     -31.25520000     -67.66980000
S      -41.61660000     -31.74820000     -70.20130000
H      -42.02030000     -32.28260000     -72.62980000
