40
Properties=species:S:1:pos:R:3 #=T CELL(abcABC):=T 1.889726e+02=T 90.00000=T Traj:=T positionsangstrom=T Step:=T 0=T Bead:=T pbc="F F F"
C      -44.28750000     -30.64310000     -70.34200000
C      -45.46310000     -30.37470000     -71.14860000
C      -45.46840000     -30.64730000     -72.52330000
C      -44.30640000     -31.07850000     -73.19590000
C      -43.17870000     -31.22690000     -72.41570000
C      -43.17940000     -31.07720000     -71.05290000
H      -44.25310000     -30.54150000     -69.28560000
H      -46.45370000     -30.40380000     -73.04570000
H      -42.23780000     -31.33420000     -72.90830000
H      -42.20270000     -31.11660000     -70.48780000
C      -44.14080000     -31.38690000     -74.70920000
H      -43.01530000     -31.56320000     -74.94550000
H      -44.51310000     -30.63750000     -75.34320000
C      -46.84710000     -29.99020000     -70.48820000
H      -46.79530000     -29.03570000     -69.96230000
H      -47.59960000     -29.88180000     -71.30560000
S      -45.08700000     -32.88430000     -75.09980000
S      -47.45810000     -31.07990000     -69.11740000
C      -44.50270000     -34.17160000     -73.93190000
H      -43.79080000     -34.90460000     -74.36090000
H      -44.05530000     -33.64990000     -73.11060000
C      -48.19020000     -32.45640000     -70.06020000
H      -48.88280000     -31.99410000     -70.79790000
H      -48.88240000     -33.02510000     -69.34730000
C      -47.13110000     -33.22480000     -70.84020000
H      -47.76810000     -33.95950000     -71.46400000
H      -46.71920000     -32.51190000     -71.54290000
C      -45.73350000     -34.94530000     -73.34200000
H      -45.93960000     -35.64330000     -74.09210000
H      -46.66320000     -34.29950000     -73.17130000
C      -45.27340000     -35.68860000     -72.11420000
C      -44.52430000     -36.83110000     -72.17340000
C      -45.43320000     -35.18650000     -70.78760000
H      -44.47290000     -37.35860000     -73.10740000
C      -44.69270000     -36.01300000     -69.87770000
C      -46.19400000     -34.12130000     -70.13440000
C      -46.04970000     -34.19240000     -68.75620000
S      -43.95160000     -37.40500000     -70.61770000
S      -44.92020000     -35.49580000     -68.26700000
H      -46.40380000     -33.54160000     -67.95310000
