40
Properties=species:S:1:pos:R:3 #=T CELL(abcABC):=T 1.889726e+02=T 90.00000=T Traj:=T positionsangstrom=T Step:=T 0=T Bead:=T pbc="F F F"
C      -44.32770000     -30.69550000     -70.39820000
C      -45.48250000     -30.50770000     -71.18210000
C      -45.35040000     -30.71290000     -72.57520000
C      -44.22660000     -31.20510000     -73.23860000
C      -43.07500000     -31.32160000     -72.43060000
C      -43.14380000     -31.07340000     -71.04000000
H      -44.33020000     -30.41260000     -69.28470000
H      -46.21520000     -30.40700000     -73.13590000
H      -42.08840000     -31.71200000     -72.62250000
H      -42.26040000     -31.17830000     -70.40040000
C      -44.29520000     -31.37830000     -74.74300000
H      -43.27130000     -31.40990000     -75.07220000
H      -44.87020000     -30.50710000     -75.14200000
C      -46.67020000     -29.92670000     -70.55210000
H      -46.46050000     -28.93410000     -70.13570000
H      -47.48110000     -29.89970000     -71.29970000
S      -45.18470000     -32.91350000     -75.21000000
S      -47.26270000     -30.96260000     -69.13980000
C      -44.72270000     -34.10240000     -73.91620000
H      -43.96970000     -34.80980000     -74.27250000
H      -44.16900000     -33.54620000     -73.15560000
C      -48.16190000     -32.40600000     -69.87710000
H      -48.98010000     -32.10390000     -70.48790000
H      -48.58930000     -33.01440000     -69.06410000
C      -47.17870000     -33.21250000     -70.81020000
H      -47.73070000     -33.81380000     -71.55230000
H      -46.51510000     -32.52960000     -71.33950000
C      -45.80850000     -34.95860000     -73.36920000
H      -46.02720000     -35.80400000     -74.11260000
H      -46.75120000     -34.50940000     -73.20910000
C      -45.31090000     -35.69560000     -72.08220000
C      -44.58780000     -36.84160000     -72.14990000
C      -45.46680000     -35.21030000     -70.72760000
H      -44.39930000     -37.45470000     -73.06890000
C      -44.74360000     -36.02020000     -69.85450000
C      -46.19500000     -34.12130000     -70.09210000
C      -46.05550000     -34.19030000     -68.71550000
S      -43.95500000     -37.39410000     -70.61790000
S      -44.94470000     -35.47130000     -68.21640000
H      -46.30120000     -33.41900000     -67.92140000
