40
Properties=species:S:1:pos:R:3 #=T CELL(abcABC):=T 1.889726e+02=T 90.00000=T Traj:=T positionsangstrom=T Step:=T 0=T Bead:=T pbc="F F F"
C      -44.48740000     -30.66680000     -70.16730000
C      -45.56320000     -30.38370000     -71.04020000
C      -45.47770000     -30.64200000     -72.43070000
C      -44.26940000     -31.00930000     -73.04400000
C      -43.14550000     -31.09820000     -72.18030000
C      -43.26810000     -30.93470000     -70.84490000
H      -44.52570000     -30.64250000     -69.15240000
H      -46.36710000     -30.55970000     -73.07820000
H      -42.17790000     -31.34410000     -72.69100000
H      -42.40550000     -31.14220000     -70.20180000
C      -44.20780000     -31.14720000     -74.58700000
H      -43.31010000     -31.11440000     -75.18930000
H      -44.82200000     -30.37210000     -75.02590000
C      -46.94220000     -30.01040000     -70.53410000
H      -47.01320000     -28.97950000     -70.18770000
H      -47.68410000     -30.07860000     -71.28870000
S      -45.03110000     -32.74390000     -75.15680000
S      -47.51400000     -31.19320000     -69.16970000
C      -44.34930000     -34.01930000     -73.86780000
H      -43.41780000     -34.49300000     -74.17010000
H      -44.03990000     -33.38620000     -72.99580000
C      -48.13000000     -32.58500000     -70.20850000
H      -48.87340000     -32.18510000     -70.88600000
H      -48.52180000     -33.27640000     -69.50410000
C      -47.16860000     -33.39370000     -71.06360000
H      -47.84540000     -34.10810000     -71.47440000
H      -46.74170000     -32.95890000     -71.93620000
C      -45.49740000     -35.07480000     -73.50950000
H      -45.56200000     -35.76260000     -74.33080000
H      -46.54620000     -34.48230000     -73.51660000
C      -45.18000000     -35.80030000     -72.18900000
C      -44.36460000     -36.88480000     -72.17130000
C      -45.50260000     -35.34190000     -70.86840000
H      -43.92220000     -37.26100000     -73.02620000
C      -44.88250000     -36.15250000     -69.85870000
C      -46.26860000     -34.28330000     -70.26360000
C      -46.00620000     -34.11630000     -68.89090000
S      -43.89140000     -37.40520000     -70.55460000
S      -44.94870000     -35.40490000     -68.26770000
H      -46.51280000     -33.55780000     -68.15620000
