40
Properties=species:S:1:pos:R:3 #=T CELL(abcABC):=T 1.889726e+02=T 90.00000=T Traj:=T positionsangstrom=T Step:=T 0=T Bead:=T pbc="F F F"
C      -44.64680000     -30.54660000     -70.23760000
C      -45.73160000     -30.23470000     -71.10280000
C      -45.46600000     -30.41970000     -72.48440000
C      -44.19960000     -30.94060000     -73.01560000
C      -43.17110000     -31.18980000     -72.09830000
C      -43.38390000     -30.92830000     -70.71620000
H      -44.73740000     -30.44090000     -69.12250000
H      -46.17900000     -30.24060000     -73.22830000
H      -42.24380000     -31.58150000     -72.49130000
H      -42.55860000     -31.03560000     -70.09760000
C      -44.08400000     -31.13550000     -74.55010000
H      -43.02720000     -31.16800000     -74.77740000
H      -44.56830000     -30.20050000     -75.05410000
C      -46.95160000     -29.91510000     -70.25490000
H      -46.59920000     -29.16300000     -69.59800000
H      -47.78690000     -29.62770000     -70.90890000
S      -44.82720000     -32.72130000     -75.00680000
S      -47.54900000     -31.35150000     -69.19300000
C      -44.53260000     -33.77020000     -73.57420000
H      -43.48340000     -34.13430000     -73.67750000
H      -44.62750000     -33.27210000     -72.60260000
C      -48.19750000     -32.66210000     -70.40440000
H      -48.94870000     -32.16860000     -71.06950000
H      -48.81690000     -33.41780000     -69.84550000
C      -47.15510000     -33.41600000     -71.28900000
H      -47.83790000     -33.92860000     -72.01610000
H      -46.54040000     -32.64700000     -71.82120000
C      -45.36580000     -35.12930000     -73.56950000
H      -45.08600000     -35.72000000     -74.45380000
H      -46.38060000     -34.88600000     -73.62240000
C      -45.07760000     -35.86210000     -72.25380000
C      -44.23220000     -36.90710000     -72.19550000
C      -45.34560000     -35.27050000     -70.93340000
H      -43.80180000     -37.45240000     -73.06070000
C      -44.67790000     -35.97130000     -69.95050000
C      -46.28990000     -34.32240000     -70.39870000
C      -46.28610000     -34.29360000     -69.02440000
S      -43.88910000     -37.43570000     -70.52620000
S      -45.09480000     -35.50450000     -68.32870000
H      -46.86400000     -33.67230000     -68.38230000
