40
Properties=species:S:1:pos:R:3 #=T CELL(abcABC):=T 1.889726e+02=T 90.00000=T Traj:=T positionsangstrom=T Step:=T 0=T Bead:=T pbc="F F F"
C      -46.52240000     -31.41750000     -73.51730000
C      -45.75690000     -32.43880000     -74.11790000
C      -44.32910000     -32.32580000     -74.06710000
C      -43.65880000     -31.37730000     -73.22100000
C      -44.58050000     -30.54110000     -72.50090000
C      -45.95460000     -30.42780000     -72.75740000
H      -47.55690000     -31.43940000     -73.79950000
H      -43.70950000     -33.01180000     -74.59260000
H      -44.10740000     -29.86580000     -71.79380000
H      -46.60120000     -29.75030000     -72.20140000
C      -42.18540000     -31.26290000     -72.97440000
H      -41.91830000     -30.38400000     -72.34360000
H      -41.62900000     -31.06060000     -73.91350000
C      -46.32760000     -33.52280000     -74.97300000
H      -46.66920000     -33.17080000     -75.95160000
H      -45.51920000     -34.29160000     -75.15290000
S      -41.49570000     -32.82240000     -72.19100000
S      -47.73220000     -34.48300000     -74.07210000
C      -42.46310000     -32.85090000     -70.66930000
H      -41.92310000     -32.18410000     -69.95200000
H      -43.39130000     -32.24340000     -70.83280000
C      -46.66580000     -35.66030000     -73.06400000
H      -46.11140000     -36.28580000     -73.69490000
H      -47.25370000     -36.50260000     -72.66940000
C      -45.71160000     -35.01390000     -72.00610000
H      -44.81240000     -35.66660000     -71.94570000
H      -45.30450000     -34.12580000     -72.37270000
C      -43.06430000     -34.09710000     -70.12670000
H      -42.38360000     -34.84600000     -69.66550000
H      -43.44090000     -34.67030000     -70.99530000
C      -44.27240000     -33.85440000     -69.19570000
C      -44.24740000     -33.28410000     -67.98660000
C      -45.59920000     -34.29770000     -69.54790000
H      -43.24720000     -33.05750000     -67.58630000
C      -46.45910000     -34.22380000     -68.41610000
C      -46.38860000     -34.83810000     -70.66440000
C      -47.72940000     -34.91510000     -70.43020000
S      -45.62700000     -33.55620000     -67.00120000
S      -48.08970000     -34.45660000     -68.81980000
H      -48.40750000     -35.18540000     -71.23650000
