40
Properties=species:S:1:pos:R:3 #=T CELL(abcABC):=T 1.889726e+02=T 90.00000=T Traj:=T positionsangstrom=T Step:=T 0=T Bead:=T pbc="F F F"
C      -43.54170000     -30.46480000     -71.18290000
C      -44.90320000     -30.28570000     -71.35260000
C      -45.51610000     -30.61730000     -72.58370000
C      -44.74600000     -31.10920000     -73.56590000
C      -43.36650000     -31.28460000     -73.40940000
C      -42.67610000     -30.79440000     -72.28920000
H      -43.07520000     -30.31190000     -70.27790000
H      -46.60710000     -30.43670000     -72.67760000
H      -42.80350000     -31.56850000     -74.33070000
H      -41.58240000     -30.83040000     -72.14360000
C      -45.44380000     -31.49700000     -74.87320000
H      -44.81440000     -31.58140000     -75.76210000
H      -46.21750000     -30.81900000     -75.03860000
C      -45.81170000     -29.69400000     -70.22840000
H      -45.24650000     -28.91050000     -69.73140000
H      -46.71890000     -29.19440000     -70.57740000
S      -46.36450000     -33.09120000     -74.71600000
S      -46.24790000     -31.01500000     -69.03670000
C      -45.14170000     -34.19170000     -73.81570000
H      -44.35040000     -34.58070000     -74.46380000
H      -44.71950000     -33.61380000     -72.97800000
C      -47.45080000     -31.88480000     -70.08990000
H      -47.86900000     -31.17810000     -70.71610000
H      -48.19690000     -32.26370000     -69.43690000
C      -46.88500000     -33.14320000     -70.83420000
H      -47.77330000     -33.58460000     -71.28500000
H      -46.19120000     -32.89130000     -71.63170000
C      -45.98010000     -35.26960000     -73.19490000
H      -46.09570000     -36.06860000     -73.93230000
H      -46.99290000     -34.94010000     -73.01250000
C      -45.44460000     -35.89860000     -71.92130000
C      -44.69410000     -37.05260000     -71.90070000
C      -45.62710000     -35.41590000     -70.58650000
H      -44.43210000     -37.63810000     -72.71490000
C      -44.93580000     -36.11830000     -69.66890000
C      -46.11930000     -34.13980000     -70.01060000
C      -45.87690000     -34.05200000     -68.68640000
S      -44.06210000     -37.46680000     -70.32000000
S      -44.92740000     -35.46820000     -68.09250000
H      -46.27440000     -33.45840000     -67.90660000
