40
Properties=species:S:1:pos:R:3 #=T CELL(abcABC):=T 1.889726e+02=T 90.00000=T Traj:=T positionsangstrom=T Step:=T 0=T Bead:=T pbc="F F F"
C      -43.66890000     -30.51390000     -70.95310000
C      -45.00210000     -30.30190000     -71.34010000
C      -45.37230000     -30.50300000     -72.67080000
C      -44.42920000     -31.05820000     -73.60700000
C      -43.11360000     -31.24100000     -73.17450000
C      -42.78270000     -31.09980000     -71.85510000
H      -43.33510000     -30.29600000     -69.87730000
H      -46.39570000     -30.47060000     -72.97530000
H      -42.36540000     -31.65030000     -73.87060000
H      -41.79050000     -31.31890000     -71.57930000
C      -44.93380000     -31.55880000     -74.95680000
H      -44.09680000     -31.87760000     -75.55070000
H      -45.33300000     -30.68340000     -75.53600000
C      -46.14410000     -29.79120000     -70.44680000
H      -45.74060000     -28.88820000     -69.93980000
H      -46.95360000     -29.45180000     -71.15790000
S      -46.23600000     -32.83830000     -74.77190000
S      -46.57310000     -30.91420000     -69.09840000
C      -45.20540000     -33.94810000     -73.68410000
H      -44.24710000     -34.06170000     -74.15810000
H      -45.10230000     -33.37160000     -72.78350000
C      -47.69140000     -32.11070000     -69.97830000
H      -48.26040000     -31.56640000     -70.71650000
H      -48.43520000     -32.39990000     -69.28200000
C      -47.00040000     -33.23110000     -70.78840000
H      -47.72510000     -33.67540000     -71.44980000
H      -46.39300000     -32.69880000     -71.52630000
C      -45.92820000     -35.35450000     -73.28130000
H      -45.73890000     -36.15870000     -74.05850000
H      -47.03120000     -35.25490000     -73.28070000
C      -45.30680000     -35.84230000     -71.97070000
C      -44.56280000     -37.01730000     -72.07860000
C      -45.52000000     -35.36710000     -70.58660000
H      -44.28250000     -37.67660000     -72.97280000
C      -44.83550000     -36.19610000     -69.62770000
C      -46.19780000     -34.21950000     -70.00920000
C      -46.09070000     -34.22930000     -68.63900000
S      -43.91080000     -37.46060000     -70.45430000
S      -45.03190000     -35.54510000     -68.04130000
H      -46.42630000     -33.38710000     -68.02300000
