40
Properties=species:S:1:pos:R:3 #=T CELL(abcABC):=T 1.889726e+02=T 90.00000=T Traj:=T positionsangstrom=T Step:=T 0=T Bead:=T pbc="F F F"
C      -43.36500000     -30.27900000     -71.78240000
C      -44.72450000     -30.22280000     -71.69390000
C      -45.51530000     -30.61720000     -72.81530000
C      -44.83730000     -31.17710000     -73.96160000
C      -43.45640000     -31.24970000     -73.99860000
C      -42.70590000     -30.69830000     -72.94200000
H      -42.83620000     -29.85510000     -70.95300000
H      -46.59490000     -30.32740000     -72.80200000
H      -42.86700000     -31.65570000     -74.74640000
H      -41.58400000     -30.51720000     -73.01190000
C      -45.54820000     -31.67040000     -75.17090000
H      -44.82940000     -31.92530000     -75.93650000
H      -46.08640000     -30.83900000     -75.63760000
C      -45.43070000     -29.66130000     -70.45210000
H      -44.84990000     -28.94890000     -70.01240000
H      -46.42970000     -29.27870000     -70.59300000
S      -46.62890000     -33.04600000     -74.73850000
S      -45.64760000     -30.90980000     -69.08460000
C      -45.62070000     -34.09260000     -73.57450000
H      -44.78040000     -34.45750000     -74.17470000
H      -45.17740000     -33.44820000     -72.81440000
C      -47.23130000     -31.81990000     -69.37230000
H      -47.91810000     -31.14990000     -69.84410000
H      -47.65480000     -32.10610000     -68.39550000
C      -47.04800000     -33.13600000     -70.22750000
H      -48.06420000     -33.49230000     -70.43010000
H      -46.69160000     -32.83560000     -71.24370000
C      -46.49630000     -35.23970000     -72.93810000
H      -46.71120000     -36.02050000     -73.74780000
H      -47.54900000     -34.88290000     -72.71610000
C      -45.74160000     -35.80300000     -71.73970000
C      -45.01240000     -37.01000000     -71.89460000
C      -45.51060000     -35.28990000     -70.38190000
H      -45.14910000     -37.63320000     -72.79070000
C      -44.72560000     -36.13700000     -69.58030000
C      -46.06750000     -34.19180000     -69.61610000
C      -45.76500000     -34.26280000     -68.28670000
S      -44.16570000     -37.57170000     -70.45670000
S      -44.85410000     -35.67380000     -67.83590000
H      -46.25600000     -33.63810000     -67.55180000
