40
Properties=species:S:1:pos:R:3 #=T CELL(abcABC):=T 1.889726e+02=T 90.00000=T Traj:=T positionsangstrom=T Step:=T 0=T Bead:=T pbc="F F F"
C      -43.47140000     -30.29820000     -71.30460000
C      -44.91180000     -30.12220000     -71.39170000
C      -45.47820000     -30.55580000     -72.57440000
C      -44.80500000     -31.12790000     -73.64450000
C      -43.41400000     -31.19620000     -73.57210000
C      -42.79580000     -30.91320000     -72.36480000
H      -42.86600000     -29.88650000     -70.45480000
H      -46.53000000     -30.50430000     -72.66860000
H      -42.82650000     -31.67890000     -74.38930000
H      -41.68840000     -31.04630000     -72.30850000
C      -45.40840000     -31.58000000     -74.93630000
H      -44.55870000     -31.75260000     -75.54940000
H      -45.99580000     -30.72540000     -75.47360000
C      -45.68420000     -29.56330000     -70.24520000
H      -45.10210000     -28.75840000     -69.70430000
H      -46.66130000     -29.25640000     -70.67800000
S      -46.40860000     -33.14860000     -74.91830000
S      -46.09750000     -30.83880000     -68.97180000
C      -45.50660000     -34.26170000     -73.75060000
H      -44.61900000     -34.57730000     -74.21480000
H      -45.16010000     -33.58030000     -72.92810000
C      -47.38490000     -31.96580000     -69.70700000
H      -48.04170000     -31.31140000     -70.44830000
H      -48.08750000     -32.39360000     -68.94970000
C      -46.92560000     -33.07000000     -70.64620000
H      -47.83220000     -33.48860000     -71.14610000
H      -46.37310000     -32.63490000     -71.54690000
C      -46.13460000     -35.48740000     -73.18260000
H      -46.09510000     -36.28960000     -74.00240000
H      -47.20100000     -35.21160000     -73.01870000
C      -45.48070000     -36.00830000     -71.90470000
C      -44.66540000     -37.11960000     -71.92110000
C      -45.50000000     -35.34950000     -70.58650000
H      -44.45500000     -37.69170000     -72.81490000
C      -44.75240000     -36.08700000     -69.65250000
C      -46.09180000     -34.14660000     -69.98060000
C      -45.92900000     -34.19800000     -68.64680000
S      -44.11950000     -37.58150000     -70.31470000
S      -44.90070000     -35.41120000     -68.04100000
H      -46.13010000     -33.39420000     -67.92780000
