40
Properties=species:S:1:pos:R:3 #=T CELL(abcABC):=T 1.889726e+02=T 90.00000=T Traj:=T positionsangstrom=T Step:=T 0=T Bead:=T pbc="F F F"
C      -43.54060000     -30.55640000     -71.14060000
C      -44.89050000     -30.25780000     -71.38230000
C      -45.39940000     -30.40120000     -72.64320000
C      -44.58060000     -31.01630000     -73.62700000
C      -43.26820000     -31.30440000     -73.40530000
C      -42.66180000     -30.94330000     -72.16910000
H      -43.10350000     -30.35270000     -70.18100000
H      -46.40490000     -30.06290000     -72.92310000
H      -42.65850000     -31.86270000     -74.09240000
H      -41.63040000     -31.10500000     -72.00300000
C      -45.17260000     -31.39030000     -74.90540000
H      -44.38120000     -31.63770000     -75.71610000
H      -45.90510000     -30.68780000     -75.29420000
C      -45.67950000     -29.72880000     -70.26430000
H      -45.11130000     -29.17960000     -69.51950000
H      -46.52130000     -29.09270000     -70.55450000
S      -46.23570000     -32.93350000     -74.65750000
S      -46.46390000     -31.01130000     -69.12440000
C      -45.24490000     -34.16600000     -73.75860000
H      -44.42380000     -34.66690000     -74.41360000
H      -44.64360000     -33.67190000     -73.03700000
C      -47.63240000     -32.06730000     -70.09680000
H      -48.37750000     -31.47270000     -70.68120000
H      -48.23300000     -32.47590000     -69.17650000
C      -47.01930000     -33.25000000     -70.83350000
H      -47.75550000     -33.94920000     -71.33000000
H      -46.37020000     -32.78270000     -71.58710000
C      -46.10950000     -35.30240000     -73.10820000
H      -46.13050000     -36.08190000     -73.85970000
H      -47.17150000     -35.02580000     -72.90240000
C      -45.40380000     -35.86740000     -71.91040000
C      -44.62480000     -37.02100000     -71.94480000
C      -45.41400000     -35.26490000     -70.64640000
H      -44.39020000     -37.61140000     -72.78660000
C      -44.78410000     -36.04100000     -69.69280000
C      -46.19880000     -34.17780000     -69.99780000
C      -46.09570000     -34.21360000     -68.64280000
S      -44.06090000     -37.54320000     -70.36410000
S      -45.01470000     -35.48940000     -68.04850000
H      -46.47850000     -33.50960000     -67.92420000
