40
Properties=species:S:1:pos:R:3 #=T CELL(abcABC):=T 1.889726e+02=T 90.00000=T Traj:=T positionsangstrom=T Step:=T 0=T Bead:=T pbc="F F F"
C      -43.46730000     -30.22500000     -71.49310000
C      -44.91310000     -30.10700000     -71.51470000
C      -45.51360000     -30.67960000     -72.63180000
C      -44.81370000     -31.18030000     -73.77660000
C      -43.40360000     -31.29620000     -73.62540000
C      -42.80820000     -31.01150000     -72.42460000
H      -42.99210000     -29.75580000     -70.58660000
H      -46.57930000     -30.74500000     -72.80350000
H      -42.75680000     -31.60590000     -74.43450000
H      -41.79320000     -31.24130000     -72.27110000
C      -45.57540000     -31.60890000     -75.03620000
H      -44.87380000     -31.76130000     -75.84620000
H      -46.32430000     -30.85980000     -75.38970000
C      -45.69800000     -29.59070000     -70.32170000
H      -45.29880000     -28.71190000     -69.85000000
H      -46.68840000     -29.26640000     -70.56470000
S      -46.45890000     -33.17940000     -74.79840000
S      -45.92850000     -30.89900000     -68.96270000
C      -45.31910000     -34.17130000     -73.66240000
H      -44.39440000     -34.56300000     -74.22890000
H      -44.88440000     -33.53920000     -72.85270000
C      -47.30360000     -31.93450000     -69.71110000
H      -47.87380000     -31.19640000     -70.31140000
H      -47.88930000     -32.23490000     -68.89750000
C      -46.84210000     -33.03450000     -70.58900000
H      -47.70710000     -33.58100000     -71.00390000
H      -46.30200000     -32.62280000     -71.42870000
C      -46.22650000     -35.19500000     -73.06690000
H      -46.54140000     -35.83620000     -73.86040000
H      -47.11960000     -34.69010000     -72.75130000
C      -45.60480000     -35.86660000     -71.85880000
C      -44.90820000     -37.08270000     -71.95710000
C      -45.56090000     -35.28330000     -70.52380000
H      -44.75700000     -37.63170000     -72.89630000
C      -44.80000000     -36.13160000     -69.64160000
C      -46.08600000     -34.14780000     -69.85320000
C      -45.81060000     -34.16720000     -68.51870000
S      -44.10370000     -37.49810000     -70.43140000
S      -44.89680000     -35.56120000     -67.99520000
H      -46.10310000     -33.34020000     -67.77890000
