40
Properties=species:S:1:pos:R:3 #=T CELL(abcABC):=T 1.889726e+02=T 90.00000=T Traj:=T positionsangstrom=T Step:=T 0=T Bead:=T pbc="F F F"
C      -43.26310000     -30.22550000     -71.87820000
C      -44.66720000     -30.29860000     -71.73860000
C      -45.39380000     -30.69230000     -72.84710000
C      -44.77450000     -31.24200000     -74.00010000
C      -43.36790000     -31.19530000     -74.12040000
C      -42.65430000     -30.60270000     -73.03600000
H      -42.65570000     -29.83530000     -71.11140000
H      -46.43200000     -30.80030000     -72.72930000
H      -42.88520000     -31.42100000     -75.10050000
H      -41.59350000     -30.37600000     -73.23120000
C      -45.62860000     -31.75710000     -75.15320000
H      -45.00490000     -32.15840000     -75.92620000
H      -46.21080000     -30.84650000     -75.52450000
C      -45.54740000     -29.74370000     -70.57750000
H      -45.32170000     -28.66240000     -70.32180000
H      -46.62110000     -29.78410000     -70.91830000
S      -46.78620000     -33.07020000     -74.62030000
S      -45.43450000     -30.87700000     -69.15510000
C      -45.63930000     -34.04790000     -73.54840000
H      -44.82010000     -34.47200000     -74.17430000
H      -45.12050000     -33.45700000     -72.80600000
C      -47.03900000     -31.80200000     -69.18540000
H      -47.66530000     -31.05480000     -69.74190000
H      -47.36860000     -31.95370000     -68.19060000
C      -47.04950000     -33.07310000     -70.11590000
H      -48.08090000     -33.39990000     -70.36690000
H      -46.64240000     -32.80270000     -71.08140000
C      -46.54890000     -35.10090000     -72.83100000
H      -46.90090000     -35.85700000     -73.45020000
H      -47.32240000     -34.51910000     -72.40100000
C      -45.77790000     -35.75160000     -71.70930000
C      -45.01480000     -36.90320000     -71.93810000
C      -45.69510000     -35.40040000     -70.34180000
H      -44.81870000     -37.36410000     -72.90760000
C      -44.93460000     -36.20460000     -69.53240000
C      -46.22680000     -34.26280000     -69.57160000
C      -45.87800000     -34.32950000     -68.26600000
S      -44.27420000     -37.58870000     -70.46920000
S      -44.70870000     -35.65890000     -67.87980000
H      -45.95790000     -33.56360000     -67.58820000
