40
Properties=species:S:1:pos:R:3 #=T CELL(abcABC):=T 1.889726e+02=T 90.00000=T Traj:=T positionsangstrom=T Step:=T 0=T Bead:=T pbc="F F F"
C      -43.06800000     -29.96360000     -72.00200000
C      -44.38720000     -29.91280000     -71.64380000
C      -45.38280000     -30.48140000     -72.50950000
C      -45.09510000     -30.84060000     -73.78740000
C      -43.75390000     -30.75260000     -74.21230000
C      -42.73670000     -30.32510000     -73.33850000
H      -42.30860000     -29.49470000     -71.26340000
H      -46.45610000     -30.57650000     -72.05260000
H      -43.43380000     -31.08380000     -75.20190000
H      -41.72160000     -30.31000000     -73.65370000
C      -46.14810000     -31.38540000     -74.73450000
H      -45.75060000     -31.51870000     -75.74780000
H      -46.98300000     -30.60680000     -74.79410000
C      -44.94600000     -29.52540000     -70.30580000
H      -44.41530000     -28.76420000     -69.81560000
H      -45.94010000     -29.09410000     -70.30730000
S      -47.15000000     -32.88810000     -74.24170000
S      -44.99860000     -31.01280000     -69.18110000
C      -45.97600000     -34.19790000     -73.70870000
H      -45.42820000     -34.54070000     -74.58980000
H      -45.25650000     -33.73350000     -73.03380000
C      -46.59300000     -31.85990000     -69.42160000
H      -47.23430000     -31.11080000     -69.89490000
H      -47.04620000     -32.01100000     -68.50860000
C      -46.56410000     -33.04590000     -70.34230000
H      -47.55090000     -33.51920000     -70.59460000
H      -46.04270000     -32.77240000     -71.27200000
C      -46.67220000     -35.28800000     -72.84500000
H      -47.11600000     -36.09770000     -73.53780000
H      -47.48290000     -34.76640000     -72.33660000
C      -45.81580000     -35.96280000     -71.80480000
C      -45.44560000     -37.26510000     -71.88870000
C      -45.63340000     -35.49290000     -70.48380000
H      -45.50970000     -37.88310000     -72.74650000
C      -45.03010000     -36.44910000     -69.66860000
C      -45.79070000     -34.21380000     -69.77650000
C      -45.24040000     -34.29040000     -68.49370000
S      -44.79670000     -37.94710000     -70.41140000
S      -44.57890000     -35.89200000     -68.08870000
H      -45.33800000     -33.54780000     -67.75760000
