40
Properties=species:S:1:pos:R:3 #=T CELL(abcABC):=T 1.889726e+02=T 90.00000=T Traj:=T positionsangstrom=T Step:=T 0=T Bead:=T pbc="F F F"
C      -43.32140000     -30.36080000     -71.96230000
C      -44.69040000     -30.03770000     -71.73460000
C      -45.62220000     -30.46780000     -72.64770000
C      -45.29820000     -31.19720000     -73.80750000
C      -43.94930000     -31.44660000     -74.05260000
C      -42.95590000     -31.10350000     -73.07330000
H      -42.56080000     -30.31020000     -71.16210000
H      -46.62620000     -30.16030000     -72.40700000
H      -43.66790000     -31.80370000     -75.01040000
H      -41.93700000     -31.48050000     -73.20870000
C      -46.23160000     -31.64100000     -74.86580000
H      -45.70710000     -32.08780000     -75.75530000
H      -46.95960000     -30.86380000     -75.33270000
C      -45.12050000     -29.40250000     -70.43590000
H      -44.46640000     -28.56220000     -70.28120000
H      -46.10540000     -29.10460000     -70.56850000
S      -47.46790000     -32.95350000     -74.25990000
S      -44.92000000     -30.58040000     -68.98480000
C      -46.39170000     -34.17150000     -73.38640000
H      -45.87570000     -34.85340000     -74.12380000
H      -45.60810000     -33.59480000     -72.85350000
C      -46.32510000     -31.74010000     -69.17210000
H      -47.04010000     -31.07900000     -69.65240000
H      -46.59490000     -31.92560000     -68.16000000
C      -46.18350000     -32.87800000     -70.12480000
H      -47.15660000     -33.24450000     -70.38190000
H      -45.91830000     -32.49030000     -71.10400000
C      -47.17000000     -35.08310000     -72.40970000
H      -47.78340000     -35.74720000     -73.03700000
H      -47.79160000     -34.51970000     -71.73390000
C      -46.16520000     -35.87940000     -71.61110000
C      -45.95590000     -37.21830000     -71.83400000
C      -45.43250000     -35.35360000     -70.49910000
H      -46.23990000     -37.84940000     -72.68970000
C      -44.67220000     -36.31420000     -69.88010000
C      -45.38460000     -34.12470000     -69.75820000
C      -44.61420000     -34.13010000     -68.61640000
S      -44.75950000     -37.88430000     -70.75210000
S      -43.87900000     -35.78510000     -68.39230000
H      -44.45360000     -33.37030000     -67.87770000
