40
Properties=species:S:1:pos:R:3 #=T CELL(abcABC):=T 1.889726e+02=T 90.00000=T Traj:=T positionsangstrom=T Step:=T 0=T Bead:=T pbc="F F F"
C      -43.56580000     -30.94480000     -71.92510000
C      -44.86760000     -30.47720000     -71.80900000
C      -45.73340000     -30.61120000     -72.85490000
C      -45.35200000     -31.33550000     -74.02330000
C      -44.01120000     -31.75330000     -74.15450000
C      -43.14820000     -31.55780000     -73.08800000
H      -42.97970000     -30.96450000     -71.01780000
H      -46.71930000     -30.17200000     -72.73500000
H      -43.65350000     -32.39300000     -75.00360000
H      -42.17590000     -32.03550000     -73.19730000
C      -46.47770000     -31.60280000     -74.99460000
H      -46.06490000     -31.95140000     -75.96450000
H      -47.12500000     -30.74900000     -75.16940000
C      -45.34010000     -29.75100000     -70.56740000
H      -44.90400000     -28.79410000     -70.46700000
H      -46.42820000     -29.65640000     -70.57390000
S      -47.54320000     -32.96720000     -74.23840000
S      -44.82160000     -30.53120000     -68.92690000
C      -46.43200000     -34.09940000     -73.44020000
H      -46.11840000     -34.95250000     -74.07960000
H      -45.51430000     -33.54920000     -73.09470000
C      -46.24250000     -31.76460000     -68.55400000
H      -47.11170000     -31.11050000     -68.41030000
H      -46.11990000     -32.11930000     -67.53550000
C      -46.43490000     -32.88590000     -69.58730000
H      -47.47420000     -33.31870000     -69.43540000
H      -46.45950000     -32.42960000     -70.52840000
C      -47.14910000     -34.87640000     -72.31660000
H      -48.05490000     -35.41870000     -72.73850000
H      -47.61630000     -34.15560000     -71.58410000
C      -46.24800000     -35.72910000     -71.49220000
C      -45.99530000     -37.05510000     -71.74300000
C      -45.45260000     -35.23720000     -70.41770000
H      -46.45780000     -37.75070000     -72.40870000
C      -44.50990000     -36.14870000     -69.93820000
C      -45.42070000     -33.98870000     -69.60680000
C      -44.33350000     -33.95690000     -68.75650000
S      -44.73320000     -37.69770000     -70.74260000
S      -43.38840000     -35.49460000     -68.81340000
H      -44.03030000     -33.22840000     -68.00160000
