40
Properties=species:S:1:pos:R:3 #=T CELL(abcABC):=T 1.889726e+02=T 90.00000=T Traj:=T positionsangstrom=T Step:=T 0=T Bead:=T pbc="F F F"
C      -43.28290000     -30.20620000     -72.02650000
C      -44.63650000     -30.03690000     -71.73870000
C      -45.56870000     -30.55480000     -72.65460000
C      -45.16160000     -31.15920000     -73.83650000
C      -43.80790000     -31.35580000     -74.09310000
C      -42.85920000     -30.81960000     -73.19450000
H      -42.55230000     -29.68250000     -71.47980000
H      -46.67550000     -30.50230000     -72.54720000
H      -43.50260000     -31.98660000     -74.93100000
H      -41.82230000     -30.88180000     -73.39170000
C      -46.23330000     -31.65850000     -74.82290000
H      -45.86900000     -32.09600000     -75.68780000
H      -46.81340000     -30.76280000     -75.15700000
C      -45.08150000     -29.48290000     -70.44260000
H      -44.48900000     -28.60910000     -70.10560000
H      -46.18280000     -29.13240000     -70.37370000
S      -47.40880000     -32.77310000     -73.96030000
S      -44.97120000     -30.61520000     -68.95000000
C      -46.28570000     -34.26810000     -73.62130000
H      -46.06480000     -34.84860000     -74.48820000
H      -45.35610000     -33.82910000     -73.19300000
C      -46.41940000     -31.72060000     -69.29050000
H      -47.33630000     -31.10170000     -69.46760000
H      -46.69450000     -32.07750000     -68.30970000
C      -46.18300000     -32.90790000     -70.25020000
H      -47.17170000     -33.17440000     -70.79290000
H      -45.57340000     -32.45070000     -71.03680000
C      -47.01050000     -35.15510000     -72.66200000
H      -47.51110000     -36.04050000     -73.23060000
H      -47.70170000     -34.54250000     -72.04000000
C      -46.12630000     -35.94330000     -71.72560000
C      -45.77160000     -37.26250000     -71.92600000
C      -45.61720000     -35.46170000     -70.41890000
H      -46.06260000     -37.87740000     -72.76390000
C      -44.81790000     -36.44740000     -69.81030000
C      -45.57840000     -34.17710000     -69.68310000
C      -44.77530000     -34.25850000     -68.56870000
S      -44.73900000     -37.89320000     -70.68540000
S      -44.02260000     -35.79870000     -68.41110000
H      -44.63230000     -33.47800000     -67.84690000
