40
Properties=species:S:1:pos:R:3 #=T CELL(abcABC):=T 1.889726e+02=T 90.00000=T Traj:=T positionsangstrom=T Step:=T 0=T Bead:=T pbc="F F F"
C      -43.32740000     -30.88050000     -69.04380000
C      -43.25920000     -30.75650000     -70.43970000
C      -42.63810000     -31.80020000     -71.15580000
C      -42.02430000     -32.89910000     -70.47440000
C      -41.96250000     -32.84390000     -69.09370000
C      -42.55060000     -31.82030000     -68.34260000
H      -43.93610000     -30.11940000     -68.44090000
H      -42.58750000     -31.68430000     -72.27330000
H      -41.47200000     -33.73810000     -68.63590000
H      -42.45740000     -31.78760000     -67.20990000
C      -41.52320000     -34.09900000     -71.23220000
H      -40.41000000     -34.14860000     -71.21140000
H      -41.78070000     -33.88440000     -72.32290000
C      -43.88990000     -29.62620000     -71.24950000
H      -44.03090000     -28.70090000     -70.69040000
H      -43.44200000     -29.59060000     -72.22900000
S      -42.25400000     -35.68270000     -70.71850000
S      -45.71490000     -29.99610000     -71.66980000
C      -43.97300000     -35.46650000     -71.16750000
H      -43.94000000     -34.77590000     -72.02510000
H      -44.41690000     -36.40050000     -71.42280000
C      -45.46820000     -31.06990000     -73.14700000
H      -44.53360000     -30.78900000     -73.73290000
H      -46.13210000     -30.91760000     -74.01710000
C      -45.43830000     -32.57040000     -72.76240000
H      -44.80080000     -33.14510000     -73.38270000
H      -45.03280000     -32.59420000     -71.77780000
C      -45.05130000     -34.79330000     -70.14850000
H      -44.90110000     -33.74460000     -70.06090000
H      -45.01980000     -35.12940000     -69.06970000
C      -46.42970000     -35.07990000     -70.67810000
C      -47.20180000     -36.07620000     -70.21100000
C      -47.04050000     -34.35350000     -71.74570000
H      -46.95170000     -36.79080000     -69.42530000
C      -48.37390000     -34.85410000     -72.03530000
C      -46.81190000     -33.26340000     -72.66390000
C      -47.85970000     -32.93620000     -73.49160000
S      -48.81100000     -36.22910000     -71.04830000
S      -49.14070000     -34.08640000     -73.40920000
H      -47.98220000     -32.11910000     -74.19000000
