40
Properties=species:S:1:pos:R:3 #=T CELL(abcABC):=T 1.889726e+02=T 90.00000=T Traj:=T positionsangstrom=T Step:=T 0=T Bead:=T pbc="F F F"
C      -43.19860000     -29.92930000     -72.11910000
C      -44.53690000     -30.01670000     -71.69300000
C      -45.49120000     -30.43900000     -72.60590000
C      -45.07730000     -30.99070000     -73.88320000
C      -43.74850000     -31.05400000     -74.18630000
C      -42.80310000     -30.42160000     -73.36890000
H      -42.45550000     -29.41810000     -71.51690000
H      -46.56560000     -30.38960000     -72.40510000
H      -43.49500000     -31.45150000     -75.16510000
H      -41.73170000     -30.49690000     -73.72530000
C      -46.08110000     -31.51310000     -74.85780000
H      -45.63700000     -32.04970000     -75.73510000
H      -46.70710000     -30.76600000     -75.28020000
C      -44.90440000     -29.57240000     -70.30320000
H      -44.11600000     -28.82900000     -69.96240000
H      -45.89000000     -29.08010000     -70.35760000
S      -47.16960000     -32.75910000     -73.95180000
S      -44.96470000     -30.92170000     -69.03540000
C      -46.01770000     -34.12080000     -73.43430000
H      -45.63700000     -34.52790000     -74.41910000
H      -45.16410000     -33.75300000     -72.88880000
C      -46.53650000     -31.69120000     -69.62790000
H      -47.09230000     -30.88990000     -70.18470000
H      -47.12940000     -32.05180000     -68.73290000
C      -46.34510000     -33.02710000     -70.43310000
H      -47.35240000     -33.12000000     -70.80500000
H      -45.74760000     -32.80110000     -71.33880000
C      -46.79700000     -35.22300000     -72.78830000
H      -47.08590000     -35.93040000     -73.44990000
H      -47.77370000     -34.81520000     -72.42790000
C      -45.98260000     -35.98570000     -71.77880000
C      -45.70300000     -37.33830000     -71.96020000
C      -45.60410000     -35.51950000     -70.45530000
H      -45.76170000     -37.89440000     -72.94080000
C      -44.94420000     -36.53360000     -69.71850000
C      -45.76990000     -34.25570000     -69.74700000
C      -45.15050000     -34.25370000     -68.50670000
S      -44.82740000     -38.00560000     -70.57900000
S      -44.42760000     -35.80670000     -68.10740000
H      -45.05150000     -33.48000000     -67.75080000
