40
Properties=species:S:1:pos:R:3 #=T CELL(abcABC):=T 1.889726e+02=T 90.00000=T Traj:=T positionsangstrom=T Step:=T 0=T Bead:=T pbc="F F F"
C      -43.16160000     -29.99340000     -72.10120000
C      -44.49670000     -30.11900000     -71.75880000
C      -45.40550000     -30.48940000     -72.75240000
C      -44.92460000     -31.00760000     -73.98980000
C      -43.60790000     -30.88540000     -74.33940000
C      -42.67660000     -30.46120000     -73.27450000
H      -42.49460000     -29.60250000     -71.31450000
H      -46.48220000     -30.56130000     -72.44880000
H      -43.18660000     -31.18080000     -75.33410000
H      -41.54450000     -30.38860000     -73.56390000
C      -45.88770000     -31.53310000     -75.05890000
H      -45.26600000     -31.89950000     -75.85930000
H      -46.61950000     -30.84330000     -75.50160000
C      -45.01000000     -29.67880000     -70.40140000
H      -44.40590000     -28.89440000     -69.96540000
H      -46.01870000     -29.30210000     -70.56300000
S      -46.98630000     -32.88920000     -74.51430000
S      -45.08670000     -31.01900000     -69.07680000
C      -45.90030000     -34.09060000     -73.59690000
H      -45.31460000     -34.74630000     -74.29200000
H      -45.21100000     -33.47630000     -72.99000000
C      -46.74950000     -31.76610000     -69.21770000
H      -47.50250000     -31.07250000     -69.70760000
H      -47.08420000     -31.97350000     -68.21590000
C      -46.79930000     -33.04840000     -70.02270000
H      -47.84090000     -33.31300000     -70.18490000
H      -46.49390000     -32.81120000     -71.04460000
C      -46.71810000     -35.09270000     -72.77550000
H      -47.00030000     -35.85870000     -73.47560000
H      -47.61580000     -34.60850000     -72.40300000
C      -45.95760000     -35.89490000     -71.69820000
C      -45.36700000     -37.14730000     -71.96050000
C      -45.61070000     -35.40220000     -70.34750000
H      -45.59520000     -37.74870000     -72.84830000
C      -44.99710000     -36.41390000     -69.58290000
C      -45.95380000     -34.22870000     -69.50900000
C      -45.42240000     -34.35270000     -68.29050000
S      -44.57850000     -37.77670000     -70.52050000
S      -44.73310000     -35.90750000     -67.91830000
H      -45.40320000     -33.64460000     -67.45000000
