40
Properties=species:S:1:pos:R:3 #=T CELL(abcABC):=T 1.889726e+02=T 90.00000=T Traj:=T positionsangstrom=T Step:=T 0=T Bead:=T pbc="F F F"
C      -43.52990000     -30.69190000     -71.88290000
C      -44.82580000     -30.21580000     -71.78190000
C      -45.73050000     -30.51640000     -72.75250000
C      -45.38870000     -31.26260000     -73.89320000
C      -44.01650000     -31.69470000     -73.98840000
C      -43.08660000     -31.39000000     -73.00930000
H      -42.81280000     -30.33160000     -71.12480000
H      -46.79550000     -30.19560000     -72.62980000
H      -43.61290000     -32.25520000     -74.83910000
H      -42.05660000     -31.71140000     -73.04950000
C      -46.36740000     -31.61150000     -74.94270000
H      -45.81160000     -31.82090000     -75.85480000
H      -46.93340000     -30.73200000     -75.10070000
C      -45.21050000     -29.55700000     -70.41360000
H      -44.68620000     -28.54240000     -70.32960000
H      -46.29580000     -29.30330000     -70.37390000
S      -47.55430000     -32.90190000     -74.41540000
S      -44.83440000     -30.61160000     -68.94230000
C      -46.44700000     -34.06840000     -73.38360000
H      -45.76220000     -34.56660000     -74.06100000
H      -45.85410000     -33.39540000     -72.82630000
C      -46.28460000     -31.74720000     -68.90080000
H      -47.28650000     -31.34900000     -69.09290000
H      -46.33960000     -32.20620000     -67.89380000
C      -46.19230000     -32.86130000     -69.99550000
H      -47.21000000     -33.16730000     -70.00170000
H      -45.83640000     -32.38010000     -70.96080000
C      -47.17750000     -35.02120000     -72.46440000
H      -47.81400000     -35.67680000     -73.01860000
H      -47.85120000     -34.47500000     -71.78460000
C      -46.16890000     -35.73740000     -71.66040000
C      -45.99690000     -37.06990000     -71.78580000
C      -45.42000000     -35.29370000     -70.41910000
H      -46.53080000     -37.70420000     -72.47200000
C      -44.65120000     -36.27060000     -69.82390000
C      -45.30020000     -34.02070000     -69.66790000
C      -44.37780000     -34.14410000     -68.65380000
S      -44.75490000     -37.77620000     -70.69160000
S      -43.59250000     -35.67580000     -68.56880000
H      -44.03780000     -33.35510000     -68.02280000
