40
Properties=species:S:1:pos:R:3 #=T CELL(abcABC):=T 1.889726e+02=T 90.00000=T Traj:=T positionsangstrom=T Step:=T 0=T Bead:=T pbc="F F F"
C      -43.42500000     -30.68740000     -72.53850000
C      -44.78450000     -30.32450000     -72.20460000
C      -45.79600000     -30.67740000     -73.02060000
C      -45.60190000     -31.51260000     -74.16920000
C      -44.25700000     -31.87190000     -74.47760000
C      -43.16410000     -31.42610000     -73.64600000
H      -42.68160000     -30.23660000     -71.89390000
H      -46.77940000     -30.28590000     -72.71670000
H      -44.00060000     -32.46740000     -75.35930000
H      -42.08080000     -31.56230000     -73.92610000
C      -46.74230000     -32.08940000     -74.95720000
H      -46.41730000     -32.63700000     -75.89210000
H      -47.37350000     -31.23920000     -75.39380000
C      -45.00780000     -29.58290000     -70.93590000
H      -44.43310000     -28.66820000     -70.94360000
H      -46.04480000     -29.32340000     -70.79210000
S      -47.97810000     -33.10230000     -73.95300000
S      -44.40800000     -30.48680000     -69.44950000
C      -46.72080000     -34.19960000     -73.08270000
H      -46.09700000     -34.71840000     -73.90740000
H      -46.00970000     -33.42180000     -72.74310000
C      -45.98510000     -31.39960000     -69.04330000
H      -46.81850000     -30.74280000     -69.20460000
H      -46.03580000     -31.59780000     -67.93220000
C      -46.17530000     -32.71870000     -69.83550000
H      -47.20340000     -33.09620000     -69.59650000
H      -46.33020000     -32.52760000     -70.91020000
C      -47.30450000     -35.18310000     -72.08380000
H      -47.84800000     -35.99890000     -72.65080000
H      -48.09660000     -34.61210000     -71.59480000
C      -46.21250000     -35.81430000     -71.22050000
C      -45.82170000     -37.09430000     -71.48990000
C      -45.37870000     -35.18070000     -70.20910000
H      -46.13300000     -37.70210000     -72.35720000
C      -44.47080000     -36.07760000     -69.67140000
C      -45.26380000     -33.90400000     -69.52700000
C      -44.35790000     -33.95210000     -68.52580000
S      -44.56180000     -37.66890000     -70.41610000
S      -43.64440000     -35.48780000     -68.27400000
H      -44.17640000     -33.10230000     -67.81740000
