40
Properties=species:S:1:pos:R:3 #=T CELL(abcABC):=T 1.889726e+02=T 90.00000=T Traj:=T positionsangstrom=T Step:=T 0=T Bead:=T pbc="F F F"
C      -43.36400000     -30.70980000     -72.61650000
C      -44.64590000     -30.34400000     -72.20120000
C      -45.67860000     -30.55670000     -73.11860000
C      -45.52910000     -31.34100000     -74.23530000
C      -44.26220000     -31.81020000     -74.65630000
C      -43.19390000     -31.44710000     -73.80790000
H      -42.51570000     -30.45170000     -71.99900000
H      -46.61720000     -30.32850000     -72.70220000
H      -44.02150000     -32.32450000     -75.58460000
H      -42.21010000     -31.87690000     -74.06670000
C      -46.80880000     -31.86400000     -74.96470000
H      -46.56650000     -32.32090000     -75.90820000
H      -47.48730000     -31.07880000     -75.22140000
C      -44.86640000     -29.52040000     -70.97740000
H      -44.09850000     -28.76060000     -71.00720000
H      -45.87320000     -28.99190000     -71.04740000
S      -47.70420000     -33.03190000     -73.84490000
S      -44.50660000     -30.52420000     -69.39650000
C      -46.48310000     -34.25290000     -73.27460000
H      -46.12590000     -34.95510000     -74.04520000
H      -45.57650000     -33.72840000     -72.98030000
C      -45.98440000     -31.53400000     -69.02870000
H      -46.83620000     -30.85000000     -69.18870000
H      -45.94560000     -31.75140000     -67.94280000
C      -46.20290000     -32.76770000     -69.90010000
H      -47.27000000     -32.99480000     -69.83350000
H      -46.04160000     -32.50210000     -70.97450000
C      -47.16160000     -34.95800000     -72.06410000
H      -47.95290000     -35.49320000     -72.42430000
H      -47.67470000     -34.27930000     -71.34290000
C      -46.24110000     -35.85750000     -71.24810000
C      -45.91310000     -37.15340000     -71.48440000
C      -45.55200000     -35.28000000     -70.11210000
H      -46.46610000     -37.83090000     -72.12090000
C      -44.59050000     -36.14970000     -69.62750000
C      -45.46670000     -33.98280000     -69.48530000
C      -44.61980000     -33.98380000     -68.42020000
S      -44.66190000     -37.74570000     -70.33550000
S      -43.71540000     -35.52060000     -68.27980000
H      -44.29020000     -33.16990000     -67.78020000
