40
Properties=species:S:1:pos:R:3 #=T CELL(abcABC):=T 1.889726e+02=T 90.00000=T Traj:=T positionsangstrom=T Step:=T 0=T Bead:=T pbc="F F F"
C      -42.88990000     -31.83690000     -74.61060000
C      -43.94690000     -31.35950000     -73.81940000
C      -45.24790000     -31.88740000     -74.04610000
C      -45.52550000     -32.92430000     -74.96700000
C      -44.41250000     -33.36420000     -75.71310000
C      -43.15260000     -32.80140000     -75.55190000
H      -41.87170000     -31.47850000     -74.39620000
H      -46.18730000     -31.48960000     -73.56640000
H      -44.56580000     -34.14620000     -76.48230000
H      -42.35460000     -33.15080000     -76.22330000
C      -46.89080000     -33.66920000     -75.13700000
H      -46.98410000     -33.94620000     -76.21850000
H      -47.67370000     -33.06360000     -74.83290000
C      -43.84200000     -30.42050000     -72.59120000
H      -42.84130000     -29.87910000     -72.66740000
H      -44.66030000     -29.65810000     -72.60510000
S      -46.87160000     -35.15630000     -74.11950000
S      -43.93440000     -31.35370000     -70.97810000
C      -46.73470000     -34.41660000     -72.44060000
H      -45.72890000     -33.90230000     -72.45380000
H      -47.54620000     -33.71570000     -72.42540000
C      -42.89250000     -32.89650000     -71.25960000
H      -41.89360000     -32.71010000     -70.86080000
H      -42.61350000     -33.00170000     -72.34980000
C      -43.53460000     -34.18300000     -70.73770000
H      -44.29650000     -34.51110000     -71.46320000
H      -42.81290000     -34.99850000     -70.61120000
C      -46.88440000     -35.48790000     -71.30450000
H      -46.07170000     -36.29410000     -71.41990000
H      -47.82460000     -35.98740000     -71.39330000
C      -46.85420000     -34.83460000     -69.95640000
C      -47.98990000     -34.78340000     -69.16850000
C      -45.72930000     -34.21320000     -69.25720000
H      -49.00400000     -35.00430000     -69.51860000
C      -46.13250000     -33.78110000     -67.99970000
C      -44.29960000     -33.97210000     -69.46350000
C      -43.70270000     -33.44950000     -68.33160000
S      -47.75660000     -34.15080000     -67.48690000
S      -44.73640000     -33.11530000     -66.98160000
H      -42.71710000     -33.01100000     -68.39340000
