40
Properties=species:S:1:pos:R:3 #=T CELL(abcABC):=T 1.889726e+02=T 90.00000=T Traj:=T positionsangstrom=T Step:=T 0=T Bead:=T pbc="F F F"
C      -43.58960000     -30.98340000     -72.36540000
C      -44.79680000     -30.38520000     -72.10920000
C      -45.93490000     -30.65420000     -72.96380000
C      -45.82070000     -31.50800000     -74.05500000
C      -44.52090000     -31.91990000     -74.40840000
C      -43.41800000     -31.74120000     -73.52310000
H      -42.78420000     -31.02540000     -71.60360000
H      -46.92200000     -30.37200000     -72.66990000
H      -44.46190000     -32.48410000     -75.31610000
H      -42.48250000     -32.21490000     -73.72900000
C      -46.98930000     -31.93810000     -74.78030000
H      -46.63790000     -32.35280000     -75.79440000
H      -47.69810000     -31.12830000     -75.03180000
C      -45.05210000     -29.54320000     -70.90400000
H      -44.55420000     -28.58700000     -70.88390000
H      -46.11190000     -29.27650000     -70.87110000
S      -47.93320000     -33.30290000     -73.91860000
S      -44.58470000     -30.42300000     -69.30090000
C      -46.70930000     -34.40540000     -73.16330000
H      -46.48920000     -35.30960000     -73.83550000
H      -45.68830000     -34.00880000     -72.91930000
C      -46.06670000     -31.39860000     -68.88440000
H      -46.96710000     -30.76950000     -69.15780000
H      -45.99660000     -31.69780000     -67.84720000
C      -46.17810000     -32.68360000     -69.77290000
H      -47.21520000     -33.06210000     -69.70700000
H      -46.12810000     -32.44660000     -70.88360000
C      -47.34550000     -35.05550000     -71.92460000
H      -48.18060000     -35.66110000     -72.17080000
H      -47.87060000     -34.24800000     -71.35620000
C      -46.31560000     -35.77050000     -71.12290000
C      -45.85470000     -37.03050000     -71.45820000
C      -45.38990000     -35.15870000     -70.14870000
H      -46.37820000     -37.76180000     -72.01410000
C      -44.34480000     -36.03500000     -69.76190000
C      -45.18350000     -33.85440000     -69.48880000
C      -44.13530000     -33.91500000     -68.59780000
S      -44.37730000     -37.52950000     -70.67370000
S      -43.19890000     -35.33580000     -68.70890000
H      -43.83310000     -33.06970000     -67.99910000
