40
Properties=species:S:1:pos:R:3 #=T CELL(abcABC):=T 1.889726e+02=T 90.00000=T Traj:=T positionsangstrom=T Step:=T 0=T Bead:=T pbc="F F F"
C      -43.00680000     -31.92550000     -74.53780000
C      -44.07490000     -31.31090000     -73.85800000
C      -45.35820000     -31.82800000     -74.13640000
C      -45.66660000     -32.88300000     -75.01940000
C      -44.53220000     -33.52550000     -75.64440000
C      -43.23620000     -33.06760000     -75.33390000
H      -41.99960000     -31.59470000     -74.39650000
H      -46.20920000     -31.33720000     -73.52620000
H      -44.69240000     -34.38050000     -76.30430000
H      -42.42180000     -33.73310000     -75.73710000
C      -47.00450000     -33.53270000     -75.15680000
H      -47.11310000     -33.79740000     -76.22310000
H      -47.91960000     -32.94200000     -74.96760000
C      -43.87050000     -30.44040000     -72.71720000
H      -42.92350000     -29.98080000     -72.68560000
H      -44.49010000     -29.54980000     -72.60690000
S      -46.91810000     -35.07320000     -74.02110000
S      -43.93430000     -31.41540000     -71.09520000
C      -46.85720000     -34.34710000     -72.33610000
H      -45.99110000     -33.67660000     -72.28550000
H      -47.73300000     -33.70570000     -72.18690000
C      -42.83790000     -32.89150000     -71.30490000
H      -42.06710000     -32.76340000     -70.56270000
H      -42.56750000     -32.88050000     -72.39790000
C      -43.53970000     -34.15430000     -70.86110000
H      -44.27640000     -34.42230000     -71.63290000
H      -42.86490000     -35.01810000     -70.87120000
C      -46.80010000     -35.51510000     -71.30110000
H      -45.93080000     -36.18440000     -71.51970000
H      -47.64840000     -36.04900000     -71.42930000
C      -46.74870000     -34.89980000     -69.89850000
C      -47.90110000     -34.82950000     -69.13490000
C      -45.66070000     -34.34430000     -69.11250000
H      -48.96650000     -35.04140000     -69.41660000
C      -45.99700000     -33.79980000     -67.85370000
C      -44.27460000     -33.96050000     -69.51990000
C      -43.61360000     -33.30150000     -68.48680000
S      -47.66270000     -34.11200000     -67.48820000
S      -44.63930000     -33.07080000     -67.03520000
H      -42.64930000     -32.93700000     -68.48280000
