40
Properties=species:S:1:pos:R:3 #=T CELL(abcABC):=T 1.889726e+02=T 90.00000=T Traj:=T positionsangstrom=T Step:=T 0=T Bead:=T pbc="F F F"
C      -43.59010000     -31.07690000     -72.05980000
C      -44.82920000     -30.44130000     -71.91010000
C      -45.82480000     -30.73150000     -72.82790000
C      -45.57340000     -31.55820000     -73.95950000
C      -44.26810000     -32.13010000     -74.05290000
C      -43.24980000     -31.87750000     -73.15150000
H      -42.84550000     -30.87850000     -71.23150000
H      -46.88480000     -30.35240000     -72.66250000
H      -43.97810000     -32.68990000     -74.92630000
H      -42.27810000     -32.38230000     -73.31740000
C      -46.68270000     -32.07410000     -74.85620000
H      -46.27770000     -32.67450000     -75.71530000
H      -47.26670000     -31.28000000     -75.30600000
C      -45.07870000     -29.64040000     -70.63430000
H      -44.59040000     -28.60540000     -70.71230000
H      -46.12600000     -29.33900000     -70.58080000
S      -47.90200000     -33.10520000     -74.00570000
S      -44.70900000     -30.45590000     -69.01610000
C      -47.07080000     -34.66110000     -73.43170000
H      -47.30810000     -35.52880000     -73.98150000
H      -46.03220000     -34.41720000     -73.54190000
C      -46.21630000     -31.56970000     -68.72720000
H      -47.11030000     -31.00860000     -68.97510000
H      -46.26780000     -31.87230000     -67.71890000
C      -46.38500000     -32.73720000     -69.67910000
H      -47.39450000     -32.97930000     -69.51540000
H      -46.46610000     -32.36410000     -70.73150000
C      -47.43150000     -35.01670000     -71.94750000
H      -48.36270000     -35.64040000     -71.93220000
H      -47.68060000     -34.17820000     -71.34790000
C      -46.29210000     -35.77800000     -71.29590000
C      -45.83450000     -37.06530000     -71.59750000
C      -45.42330000     -35.10580000     -70.32860000
H      -46.41240000     -37.91230000     -71.98350000
C      -44.26680000     -35.86820000     -70.09270000
C      -45.39990000     -33.87120000     -69.59640000
C      -44.23330000     -33.78290000     -68.83010000
S      -44.28420000     -37.44580000     -70.81470000
S      -43.17400000     -35.15680000     -68.98030000
H      -43.84930000     -32.99020000     -68.18950000
