40
Properties=species:S:1:pos:R:3 #=T CELL(abcABC):=T 1.889726e+02=T 90.00000=T Traj:=T positionsangstrom=T Step:=T 0=T Bead:=T pbc="F F F"
C      -48.78430000     -34.72430000     -74.40440000
C      -47.43970000     -35.00720000     -74.13150000
C      -47.03150000     -35.36320000     -72.83830000
C      -47.94110000     -35.50560000     -71.75240000
C      -49.27870000     -35.05090000     -71.99300000
C      -49.68990000     -34.82430000     -73.34290000
H      -49.05410000     -34.37970000     -75.43850000
H      -46.03810000     -35.80890000     -72.79440000
H      -49.91330000     -34.95040000     -71.18190000
H      -50.72200000     -34.45880000     -73.46550000
C      -47.44150000     -35.97100000     -70.40100000
H      -46.82660000     -36.91370000     -70.51660000
H      -48.22810000     -36.25740000     -69.73370000
C      -46.45350000     -34.71310000     -75.27870000
H      -45.81880000     -35.57200000     -75.48350000
H      -47.10470000     -34.30540000     -76.15580000
S      -46.19950000     -34.91390000     -69.59830000
S      -45.53620000     -33.05520000     -75.05510000
C      -47.21550000     -33.39810000     -69.41910000
H      -48.13500000     -33.39830000     -70.01340000
H      -47.48840000     -33.34700000     -68.34590000
C      -44.11000000     -33.34200000     -73.92200000
H      -43.21810000     -32.89600000     -74.41730000
H      -44.01280000     -34.39940000     -73.63440000
C      -44.46510000     -32.50010000     -72.61500000
H      -44.70540000     -31.50730000     -72.96620000
H      -45.30230000     -33.00370000     -72.12430000
C      -46.48390000     -32.08950000     -69.84860000
H      -46.85380000     -31.13220000     -69.47700000
H      -46.59020000     -31.89820000     -70.92530000
C      -45.00160000     -32.11590000     -69.35420000
C      -44.73670000     -31.94350000     -67.98430000
C      -43.73240000     -32.15940000     -70.06140000
H      -45.47290000     -32.01040000     -67.18220000
C      -42.62050000     -32.04430000     -69.22550000
C      -43.38970000     -32.28900000     -71.46910000
C      -42.05010000     -32.12730000     -71.66480000
S      -43.04480000     -31.86110000     -67.56100000
S      -41.15350000     -31.84790000     -70.19950000
H      -41.47620000     -32.21590000     -72.65960000
