40
Properties=species:S:1:pos:R:3 #=T CELL(abcABC):=T 1.889726e+02=T 90.00000=T Traj:=T positionsangstrom=T Step:=T 0=T Bead:=T pbc="F F F"
C      -43.88460000     -35.85750000     -74.12340000
C      -45.02100000     -35.03270000     -74.11080000
C      -46.12390000     -35.38910000     -73.22500000
C      -46.08540000     -36.60640000     -72.47140000
C      -44.91140000     -37.33780000     -72.50630000
C      -43.84040000     -37.01930000     -73.34170000
H      -43.00130000     -35.65810000     -74.81350000
H      -46.93030000     -34.69020000     -73.15070000
H      -44.86280000     -38.29330000     -71.88820000
H      -42.97040000     -37.65910000     -73.35830000
C      -47.12710000     -36.98540000     -71.45370000
H      -46.55480000     -37.28700000     -70.52940000
H      -47.60420000     -37.95340000     -71.86060000
C      -45.09760000     -33.99060000     -75.22170000
H      -44.81600000     -34.39350000     -76.15700000
H      -46.11270000     -33.61680000     -75.42600000
S      -48.46860000     -35.81610000     -71.10550000
S      -43.87280000     -32.57570000     -74.82450000
C      -47.62330000     -34.58060000     -69.96450000
H      -48.44450000     -34.17070000     -69.38820000
H      -47.00010000     -34.93720000     -69.23770000
C      -44.43390000     -31.75450000     -73.26120000
H      -45.52410000     -31.63520000     -73.18040000
H      -44.03920000     -30.74220000     -73.25980000
C      -43.79160000     -32.54550000     -72.06180000
H      -44.35240000     -33.48970000     -71.85690000
H      -42.76580000     -32.96340000     -72.37030000
C      -46.84650000     -33.42990000     -70.65760000
H      -47.49820000     -32.74630000     -71.41300000
H      -45.97460000     -33.77600000     -71.19110000
C      -46.22620000     -32.48340000     -69.61040000
C      -46.86150000     -32.18390000     -68.40970000
C      -44.97300000     -31.77360000     -69.80070000
H      -47.86700000     -32.43510000     -68.26980000
C      -44.73690000     -30.95040000     -68.71870000
C      -43.85760000     -31.77290000     -70.76770000
C      -42.88510000     -30.90560000     -70.33270000
S      -45.96150000     -30.95800000     -67.48920000
S      -43.28870000     -30.02230000     -68.81770000
H      -41.98590000     -30.65880000     -70.83380000
