40
Properties=species:S:1:pos:R:3 #=T CELL(abcABC):=T 1.889726e+02=T 90.00000=T Traj:=T positionsangstrom=T Step:=T 0=T Bead:=T pbc="F F F"
C      -43.79330000     -35.83430000     -73.86030000
C      -44.95010000     -35.11490000     -74.01250000
C      -46.15790000     -35.50270000     -73.26710000
C      -46.11690000     -36.65260000     -72.46980000
C      -44.90910000     -37.31440000     -72.30130000
C      -43.78860000     -36.96800000     -73.02480000
H      -42.90450000     -35.47810000     -74.40180000
H      -47.08360000     -34.99510000     -73.47550000
H      -44.72830000     -38.11480000     -71.59940000
H      -42.96190000     -37.58720000     -72.98760000
C      -47.36580000     -37.05960000     -71.76830000
H      -47.20450000     -37.75540000     -70.93410000
H      -47.89330000     -37.60420000     -72.48330000
C      -45.22660000     -33.85180000     -74.83140000
H      -45.36770000     -34.18040000     -75.92840000
H      -46.11460000     -33.29950000     -74.47410000
S      -48.45510000     -35.69140000     -71.12600000
S      -43.93400000     -32.53970000     -74.87750000
C      -47.40260000     -34.69190000     -70.01210000
H      -48.14790000     -34.38050000     -69.21580000
H      -46.60320000     -35.33500000     -69.58420000
C      -44.11010000     -31.80560000     -73.21510000
H      -45.19210000     -31.60150000     -73.05910000
H      -43.58150000     -30.82790000     -73.18820000
C      -43.55940000     -32.63140000     -71.99050000
H      -44.12910000     -33.52110000     -71.82360000
H      -42.56310000     -32.96190000     -72.09550000
C      -46.82900000     -33.38800000     -70.77900000
H      -47.63770000     -33.05460000     -71.43840000
H      -46.09590000     -33.82460000     -71.41140000
C      -46.23320000     -32.41690000     -69.79640000
C      -46.92270000     -32.07430000     -68.62740000
C      -44.93220000     -31.81800000     -69.84150000
H      -47.89780000     -32.39310000     -68.44590000
C      -44.75640000     -30.99020000     -68.73090000
C      -43.79660000     -31.77540000     -70.80070000
C      -42.90990000     -30.81350000     -70.36360000
S      -46.13650000     -31.00780000     -67.60290000
S      -43.28530000     -30.07950000     -68.78740000
H      -41.97010000     -30.65540000     -70.77270000
