40
Properties=species:S:1:pos:R:3 #=T CELL(abcABC):=T 1.889726e+02=T 90.00000=T Traj:=T positionsangstrom=T Step:=T 0=T Bead:=T pbc="F F F"
C      -43.98970000     -36.00990000     -74.49680000
C      -45.09950000     -35.19230000     -74.40710000
C      -45.94010000     -35.42300000     -73.32190000
C      -45.76860000     -36.38960000     -72.35260000
C      -44.57090000     -37.17850000     -72.38740000
C      -43.75580000     -37.00160000     -73.51010000
H      -43.29110000     -35.82320000     -75.27880000
H      -46.91440000     -34.84240000     -73.34890000
H      -44.44200000     -37.78390000     -71.52080000
H      -42.84300000     -37.67810000     -73.57570000
C      -46.80390000     -36.78930000     -71.27380000
H      -46.28250000     -37.06540000     -70.25700000
H      -47.13580000     -37.77250000     -71.57100000
C      -45.36590000     -34.08950000     -75.34500000
H      -45.10220000     -34.35590000     -76.37510000
H      -46.40220000     -33.70650000     -75.43850000
S      -48.22010000     -35.74320000     -71.26660000
S      -44.24240000     -32.69870000     -74.88960000
C      -47.96920000     -34.29390000     -70.10950000
H      -48.77170000     -33.68540000     -70.39560000
H      -48.11000000     -34.72080000     -69.12660000
C      -44.79030000     -32.16490000     -73.11480000
H      -45.87450000     -32.46590000     -73.04590000
H      -44.79480000     -31.05640000     -73.02250000
C      -43.99990000     -32.70990000     -71.93010000
H      -44.34030000     -33.73100000     -71.68520000
H      -42.96770000     -32.84600000     -72.27050000
C      -46.66520000     -33.57580000     -70.36660000
H      -46.75830000     -33.24120000     -71.38960000
H      -45.79100000     -34.37480000     -70.41920000
C      -46.19760000     -32.51560000     -69.41830000
C      -46.78140000     -32.16750000     -68.23720000
C      -44.98540000     -31.71310000     -69.64150000
H      -47.66080000     -32.64100000     -67.70130000
C      -44.70250000     -30.79520000     -68.64250000
C      -43.93720000     -31.74390000     -70.66230000
C      -42.94300000     -30.82620000     -70.41910000
S      -45.90270000     -30.97770000     -67.31420000
S      -43.21310000     -29.91570000     -68.94150000
H      -41.97090000     -30.71830000     -70.98970000
