40
Properties=species:S:1:pos:R:3 #=T CELL(abcABC):=T 1.889726e+02=T 90.00000=T Traj:=T positionsangstrom=T Step:=T 0=T Bead:=T pbc="F F F"
C      -43.67000000     -36.18690000     -73.61190000
C      -44.61640000     -35.25360000     -74.25220000
C      -45.92980000     -35.33330000     -73.78940000
C      -46.30510000     -36.27270000     -72.78850000
C      -45.38480000     -37.21710000     -72.21210000
C      -44.05580000     -37.09720000     -72.60680000
H      -42.58690000     -36.06810000     -73.79000000
H      -46.65170000     -34.61790000     -74.25350000
H      -45.83070000     -37.87960000     -71.51480000
H      -43.43120000     -37.85870000     -72.17190000
C      -47.80270000     -36.26190000     -72.45790000
H      -48.30540000     -37.18540000     -72.55960000
H      -48.23210000     -35.47400000     -73.12540000
C      -44.05680000     -34.30440000     -75.25060000
H      -43.14770000     -34.65270000     -75.73320000
H      -44.83910000     -34.17400000     -76.06590000
S      -48.06560000     -35.89250000     -70.62160000
S      -43.57670000     -32.63130000     -74.61550000
C      -46.93210000     -34.60520000     -70.18090000
H      -46.81900000     -34.53220000     -69.10410000
H      -45.95990000     -34.88530000     -70.47950000
C      -44.55990000     -32.33820000     -73.08910000
H      -45.59420000     -32.69860000     -73.28890000
H      -44.57660000     -31.29000000     -72.79340000
C      -43.99680000     -33.07600000     -71.77350000
H      -44.69230000     -33.96080000     -71.65060000
H      -42.91850000     -33.42760000     -71.97440000
C      -47.33010000     -33.16750000     -70.63030000
H      -48.32440000     -32.96920000     -70.49120000
H      -47.10070000     -33.09640000     -71.68420000
C      -46.60100000     -32.10630000     -69.77910000
C      -47.31480000     -31.42000000     -68.84870000
C      -45.16800000     -31.79130000     -69.73010000
H      -48.30280000     -31.70060000     -68.57400000
C      -44.86630000     -30.82690000     -68.76190000
C      -44.06760000     -32.14390000     -70.57840000
C      -42.91460000     -31.49210000     -70.19820000
S      -46.28300000     -30.36810000     -67.86270000
S      -43.16640000     -30.34160000     -68.88910000
H      -42.05040000     -31.52520000     -70.85670000
