40
Properties=species:S:1:pos:R:3 #=T CELL(abcABC):=T 1.889726e+02=T 90.00000=T Traj:=T positionsangstrom=T Step:=T 0=T Bead:=T pbc="F F F"
C      -43.84150000     -34.29710000     -67.53080000
C      -43.50320000     -33.13910000     -68.22960000
C      -42.75670000     -33.20050000     -69.42280000
C      -42.40590000     -34.45370000     -69.96270000
C      -42.82760000     -35.63190000     -69.28780000
C      -43.42860000     -35.50180000     -68.07170000
H      -44.31080000     -34.29880000     -66.59150000
H      -42.45400000     -32.23830000     -69.76550000
H      -42.66660000     -36.61160000     -69.75730000
H      -43.76920000     -36.41490000     -67.55890000
C      -41.57940000     -34.48740000     -71.27070000
H      -40.52540000     -34.61910000     -71.00470000
H      -41.58340000     -33.46610000     -71.71380000
C      -44.05090000     -31.85330000     -67.69100000
H      -43.84250000     -31.96230000     -66.64340000
H      -43.47190000     -31.05380000     -68.29250000
S      -42.10490000     -35.76260000     -72.56180000
S      -45.91240000     -31.54380000     -67.87190000
C      -43.60320000     -34.77750000     -73.39050000
H      -42.98770000     -34.22190000     -74.13040000
H      -44.25780000     -35.59160000     -73.87120000
C      -46.23470000     -31.69750000     -69.74320000
H      -45.24770000     -31.51020000     -70.30370000
H      -46.86750000     -30.81600000     -70.02210000
C      -46.80580000     -33.11910000     -70.12650000
H      -45.92160000     -33.73240000     -70.14870000
H      -47.47070000     -33.54700000     -69.34430000
C      -44.41480000     -33.77290000     -72.50980000
H      -43.82500000     -32.96200000     -72.24770000
H      -44.83150000     -34.11630000     -71.60740000
C      -45.62710000     -33.30590000     -73.34690000
C      -45.61920000     -33.08130000     -74.72730000
C      -46.91990000     -33.04020000     -72.78220000
H      -44.76870000     -33.34730000     -75.42180000
C      -47.86190000     -32.83530000     -73.75360000
C      -47.53120000     -33.01600000     -71.44550000
C      -48.85740000     -32.71270000     -71.48440000
S      -47.15750000     -32.51590000     -75.30940000
S      -49.46380000     -32.49280000     -73.12540000
H      -49.52320000     -32.52120000     -70.65250000
