40
Properties=species:S:1:pos:R:3 #=T CELL(abcABC):=T 1.889726e+02=T 90.00000=T Traj:=T positionsangstrom=T Step:=T 0=T Bead:=T pbc="F F F"
C      -43.84650000     -36.58560000     -73.90360000
C      -44.43560000     -35.45130000     -74.29050000
C      -45.84480000     -35.19770000     -73.85720000
C      -46.44890000     -36.09260000     -72.97310000
C      -45.72960000     -37.24570000     -72.52490000
C      -44.45470000     -37.51320000     -72.98960000
H      -42.81290000     -36.82260000     -74.25620000
H      -46.21940000     -34.22250000     -74.07050000
H      -46.29850000     -37.93600000     -71.97800000
H      -43.85090000     -38.32500000     -72.56280000
C      -47.81650000     -35.88960000     -72.45820000
H      -48.27010000     -36.80540000     -72.95040000
H      -48.37680000     -35.02730000     -72.70800000
C      -43.81340000     -34.47450000     -75.25100000
H      -42.82450000     -34.80390000     -75.61520000
H      -44.47620000     -34.36480000     -76.10890000
S      -47.93290000     -36.01120000     -70.58020000
S      -43.45780000     -32.69010000     -74.64610000
C      -46.99740000     -34.64430000     -69.89320000
H      -47.18710000     -34.77020000     -68.82310000
H      -45.92540000     -34.76610000     -70.09120000
C      -44.37620000     -32.26460000     -73.01630000
H      -45.45810000     -32.31330000     -73.27610000
H      -44.10500000     -31.16920000     -72.91110000
C      -44.08170000     -33.02900000     -71.76110000
H      -44.68910000     -33.92460000     -71.70380000
H      -43.12740000     -33.35970000     -71.90700000
C      -47.35290000     -33.23160000     -70.32730000
H      -48.48760000     -32.99660000     -70.22720000
H      -47.01150000     -33.10370000     -71.34990000
C      -46.67300000     -32.04400000     -69.60480000
C      -47.23550000     -31.26090000     -68.63940000
C      -45.22080000     -31.71830000     -69.73420000
H      -48.31660000     -31.27430000     -68.47640000
C      -44.89210000     -30.75120000     -68.78200000
C      -44.13860000     -32.16010000     -70.54120000
C      -42.94740000     -31.56450000     -70.12740000
S      -46.19780000     -30.05450000     -67.92260000
S      -43.22970000     -30.40070000     -68.81070000
H      -41.88920000     -31.79190000     -70.40990000
