40
Properties=species:S:1:pos:R:3 #=T CELL(abcABC):=T 1.889726e+02=T 90.00000=T Traj:=T positionsangstrom=T Step:=T 0=T Bead:=T pbc="F F F"
C      -43.66490000     -36.41880000     -73.56300000
C      -44.47660000     -35.43710000     -74.22950000
C      -45.81310000     -35.27580000     -73.84450000
C      -46.39420000     -36.16060000     -72.92810000
C      -45.68220000     -37.25900000     -72.43970000
C      -44.29600000     -37.32360000     -72.74430000
H      -42.65100000     -36.32760000     -73.91800000
H      -46.53990000     -34.58780000     -74.28280000
H      -46.04520000     -37.92390000     -71.64510000
H      -43.65380000     -38.09000000     -72.32660000
C      -47.75450000     -35.94290000     -72.39140000
H      -48.46820000     -36.69830000     -72.73590000
H      -48.26280000     -35.03730000     -72.77130000
C      -43.96430000     -34.39630000     -75.25230000
H      -43.02810000     -34.71480000     -75.77090000
H      -44.71520000     -34.19430000     -75.98810000
S      -47.95020000     -35.94400000     -70.56600000
S      -43.49040000     -32.71200000     -74.48590000
C      -46.88830000     -34.44240000     -69.96730000
H      -47.14620000     -34.44100000     -68.89810000
H      -45.79030000     -34.63810000     -70.20530000
C      -44.71600000     -32.41710000     -73.08350000
H      -45.66360000     -32.75870000     -73.44020000
H      -44.78440000     -31.32230000     -73.05730000
C      -44.14060000     -33.06240000     -71.74890000
H      -44.74630000     -33.86200000     -71.42810000
H      -43.11830000     -33.44340000     -71.94890000
C      -47.31310000     -33.13300000     -70.55130000
H      -48.40790000     -33.08190000     -70.55100000
H      -47.20520000     -33.10460000     -71.62570000
C      -46.62090000     -32.03240000     -69.78570000
C      -47.26260000     -31.34760000     -68.82150000
C      -45.24070000     -31.66570000     -69.84950000
H      -48.36990000     -31.35800000     -68.67710000
C      -44.88090000     -30.79440000     -68.84310000
C      -44.13440000     -32.09060000     -70.61200000
C      -42.95420000     -31.46700000     -70.26070000
S      -46.22790000     -30.25890000     -67.88940000
S      -43.15220000     -30.42840000     -68.91210000
H      -41.93950000     -31.63670000     -70.66050000
