40
Properties=species:S:1:pos:R:3 #=T CELL(abcABC):=T 1.889726e+02=T 90.00000=T Traj:=T positionsangstrom=T Step:=T 0=T Bead:=T pbc="F F F"
C      -43.92850000     -35.63700000     -73.58840000
C      -45.18700000     -35.00730000     -73.89370000
C      -46.35750000     -35.52330000     -73.36150000
C      -46.27850000     -36.64450000     -72.43680000
C      -45.02760000     -37.23940000     -72.21930000
C      -43.86690000     -36.72920000     -72.74300000
H      -43.06220000     -35.14790000     -73.93100000
H      -47.31150000     -34.96720000     -73.62650000
H      -44.92890000     -38.08480000     -71.59970000
H      -42.94470000     -37.20700000     -72.41550000
C      -47.56830000     -37.21110000     -71.86820000
H      -47.40780000     -37.86990000     -70.95350000
H      -48.21100000     -37.81420000     -72.56470000
C      -45.14730000     -33.80350000     -74.81220000
H      -45.15050000     -34.20590000     -75.80960000
H      -46.01020000     -33.22390000     -74.76040000
S      -48.53960000     -35.76000000     -71.18290000
S      -43.66210000     -32.73620000     -74.80090000
C      -47.19860000     -34.81390000     -70.21000000
H      -47.50490000     -34.64620000     -69.19620000
H      -46.29540000     -35.47910000     -70.26800000
C      -43.94060000     -31.64390000     -73.35560000
H      -44.93750000     -31.24450000     -73.39000000
H      -43.22710000     -30.85240000     -73.46060000
C      -43.63180000     -32.44130000     -72.06250000
H      -44.23610000     -33.39270000     -72.09370000
H      -42.55730000     -32.74090000     -72.11640000
C      -46.83700000     -33.43260000     -70.84230000
H      -47.66940000     -32.94630000     -71.24080000
H      -46.21290000     -33.47720000     -71.73700000
C      -46.18090000     -32.45180000     -69.80150000
C      -47.04210000     -32.06420000     -68.76370000
C      -44.89530000     -31.80010000     -69.81560000
H      -47.92390000     -32.60690000     -68.43790000
C      -44.79070000     -30.95600000     -68.75780000
C      -43.72560000     -31.81520000     -70.72100000
C      -42.73210000     -30.99480000     -70.23960000
S      -46.20880000     -30.83220000     -67.72130000
S      -43.20510000     -30.20720000     -68.73160000
H      -41.83520000     -30.64830000     -70.73570000
