40
Properties=species:S:1:pos:R:3 #=T CELL(abcABC):=T 1.889726e+02=T 90.00000=T Traj:=T positionsangstrom=T Step:=T 0=T Bead:=T pbc="F F F"
C      -43.67980000     -35.99110000     -73.57910000
C      -44.69470000     -35.19990000     -74.15040000
C      -46.00900000     -35.35900000     -73.70550000
C      -46.32060000     -36.27300000     -72.69000000
C      -45.29790000     -37.03910000     -72.07200000
C      -43.99480000     -36.87920000     -72.52400000
H      -42.70960000     -35.91440000     -74.00000000
H      -46.89610000     -34.93130000     -74.14470000
H      -45.50210000     -37.80140000     -71.34960000
H      -43.14100000     -37.50530000     -72.09210000
C      -47.77550000     -36.51250000     -72.36650000
H      -48.06750000     -37.60580000     -72.28730000
H      -48.28960000     -36.01930000     -73.20540000
C      -44.36040000     -34.23780000     -75.29630000
H      -43.65230000     -34.71380000     -75.94640000
H      -45.21600000     -33.93310000     -75.86440000
S      -48.26460000     -35.95160000     -70.68890000
S      -43.53790000     -32.65130000     -74.66280000
C      -46.94630000     -34.73250000     -70.13780000
H      -46.83570000     -34.86290000     -69.01950000
H      -45.96950000     -35.12750000     -70.56920000
C      -44.29740000     -32.16450000     -73.10620000
H      -45.40750000     -32.17970000     -73.22590000
H      -44.07780000     -31.08160000     -73.07940000
C      -43.86210000     -32.95090000     -71.87050000
H      -44.33960000     -33.85320000     -71.72620000
H      -42.87240000     -33.19040000     -72.02920000
C      -47.25520000     -33.28690000     -70.75770000
H      -48.37370000     -33.15870000     -70.76850000
H      -46.67900000     -33.18040000     -71.75720000
C      -46.58950000     -32.23410000     -69.81910000
C      -47.21450000     -31.60640000     -68.75920000
C      -45.20610000     -31.74050000     -69.93200000
H      -48.19710000     -31.74950000     -68.41970000
C      -44.90580000     -30.81820000     -68.94000000
C      -43.99750000     -32.02560000     -70.64640000
C      -42.88160000     -31.40140000     -70.12320000
S      -46.24110000     -30.43020000     -67.89540000
S      -43.19040000     -30.35790000     -68.76460000
H      -41.99130000     -31.44430000     -70.65890000
