40
Properties=species:S:1:pos:R:3 #=T CELL(abcABC):=T 1.889726e+02=T 90.00000=T Traj:=T positionsangstrom=T Step:=T 0=T Bead:=T pbc="F F F"
C      -44.17960000     -29.98380000     -72.10700000
C      -45.61360000     -30.16070000     -71.71780000
C      -46.38730000     -30.89490000     -72.60370000
C      -45.90750000     -31.39300000     -73.85910000
C      -44.56990000     -31.25480000     -74.20050000
C      -43.69180000     -30.61630000     -73.26430000
H      -43.56850000     -29.34950000     -71.50310000
H      -47.44850000     -30.98790000     -72.48080000
H      -44.16280000     -31.86620000     -74.99780000
H      -42.58440000     -30.41920000     -73.53670000
C      -46.86870000     -32.03870000     -74.82450000
H      -46.47430000     -32.41420000     -75.77940000
H      -47.67360000     -31.23460000     -75.08550000
C      -46.12350000     -29.77620000     -70.34540000
H      -45.81860000     -28.71320000     -70.14930000
H      -47.19430000     -29.81450000     -70.32170000
S      -47.75680000     -33.43860000     -74.07590000
S      -45.56040000     -30.85510000     -68.96060000
C      -46.34180000     -34.49940000     -73.29450000
H      -45.76330000     -34.99620000     -74.15820000
H      -45.58240000     -33.72350000     -72.92050000
C      -46.84320000     -32.20010000     -68.90400000
H      -47.85750000     -31.71640000     -69.10380000
H      -46.74840000     -32.67000000     -67.98710000
C      -46.58720000     -33.30850000     -69.92380000
H      -47.39150000     -34.05650000     -69.93130000
H      -46.54760000     -32.85330000     -71.00230000
C      -46.76750000     -35.52280000     -72.20100000
H      -47.13700000     -36.47190000     -72.67410000
H      -47.46100000     -35.20170000     -71.46240000
C      -45.44410000     -35.96400000     -71.53080000
C      -44.75150000     -37.02860000     -71.92250000
C      -44.91440000     -35.27490000     -70.38760000
H      -44.91190000     -37.65970000     -72.80140000
C      -43.71870000     -35.89680000     -69.98630000
C      -45.35750000     -34.11710000     -69.61460000
C      -44.45100000     -33.89560000     -68.59870000
S      -43.33630000     -37.30450000     -70.98200000
S      -43.03800000     -34.99450000     -68.63930000
H      -44.47060000     -33.11540000     -67.87180000
