40
Properties=species:S:1:pos:R:3 #=T CELL(abcABC):=T 1.889726e+02=T 90.00000=T Traj:=T positionsangstrom=T Step:=T 0=T Bead:=T pbc="F F F"
C      -44.20780000     -29.82120000     -72.29800000
C      -45.50160000     -30.13150000     -71.79310000
C      -46.43610000     -30.78420000     -72.68590000
C      -46.06780000     -31.14450000     -74.00660000
C      -44.77210000     -30.84500000     -74.45740000
C      -43.87520000     -30.15960000     -73.60560000
H      -43.59860000     -29.19810000     -71.65000000
H      -47.48920000     -31.06370000     -72.40610000
H      -44.54800000     -31.04270000     -75.52550000
H      -42.89600000     -29.94660000     -73.94850000
C      -47.07460000     -31.89700000     -74.84270000
H      -46.69130000     -32.06570000     -75.93740000
H      -47.99370000     -31.38210000     -75.08330000
C      -45.93880000     -29.69610000     -70.45290000
H      -45.54360000     -28.71260000     -70.19220000
H      -47.05670000     -29.70730000     -70.35140000
S      -47.72420000     -33.47210000     -74.14980000
S      -45.23350000     -30.75950000     -69.00500000
C      -46.36240000     -34.41530000     -73.24050000
H      -45.65210000     -34.77220000     -74.01670000
H      -45.83070000     -33.62960000     -72.62470000
C      -46.48390000     -32.09790000     -68.81260000
H      -47.48700000     -31.69640000     -68.92710000
H      -46.46490000     -32.52050000     -67.74150000
C      -46.48690000     -33.30370000     -69.85820000
H      -47.55660000     -33.65160000     -69.73390000
H      -46.42170000     -32.83600000     -70.83620000
C      -46.75910000     -35.59400000     -72.35230000
H      -47.29070000     -36.48040000     -72.74870000
H      -47.54810000     -35.27360000     -71.58080000
C      -45.50840000     -36.08290000     -71.52400000
C      -44.81050000     -37.21360000     -71.84190000
C      -45.02330000     -35.38510000     -70.35370000
H      -45.10810000     -37.90070000     -72.59170000
C      -43.89830000     -36.10810000     -69.83720000
C      -45.38390000     -34.24480000     -69.57510000
C      -44.42920000     -34.05340000     -68.57440000
S      -43.39390000     -37.51550000     -70.74640000
S      -43.12250000     -35.22700000     -68.45210000
H      -44.56870000     -33.35880000     -67.71390000
