40
Properties=species:S:1:pos:R:3 #=T CELL(abcABC):=T 1.889726e+02=T 90.00000=T Traj:=T positionsangstrom=T Step:=T 0=T Bead:=T pbc="F F F"
C      -44.45520000     -36.57720000     -74.48360000
C      -45.20210000     -35.36000000     -74.41140000
C      -46.20070000     -35.21510000     -73.42120000
C      -46.48800000     -36.28620000     -72.58960000
C      -45.76220000     -37.53140000     -72.67640000
C      -44.74120000     -37.61220000     -73.56150000
H      -43.70530000     -36.81400000     -75.23220000
H      -46.67390000     -34.29640000     -73.33630000
H      -45.98860000     -38.24620000     -71.95450000
H      -44.07210000     -38.49080000     -73.77650000
C      -47.61760000     -36.25920000     -71.58720000
H      -48.44830000     -36.97800000     -71.83310000
H      -48.18400000     -35.29610000     -71.81360000
C      -44.90780000     -34.23240000     -75.36410000
H      -44.40090000     -34.60550000     -76.25260000
H      -45.85220000     -33.70110000     -75.59470000
S      -47.11740000     -36.33920000     -69.81930000
S      -43.72740000     -33.04340000     -74.77140000
C      -46.16970000     -34.83790000     -69.66760000
H      -45.62910000     -34.81830000     -68.67410000
H      -45.28100000     -34.90340000     -70.27930000
C      -44.58640000     -32.11420000     -73.43470000
H      -45.68250000     -32.22910000     -73.53580000
H      -44.33760000     -31.02610000     -73.62780000
C      -44.24060000     -32.68870000     -72.03430000
H      -44.94860000     -33.48590000     -71.63230000
H      -43.24620000     -33.09830000     -72.19940000
C      -46.98960000     -33.52840000     -69.91250000
H      -47.99970000     -33.59360000     -69.49180000
H      -47.23420000     -33.58650000     -70.99860000
C      -46.30570000     -32.30350000     -69.36260000
C      -46.87840000     -31.70280000     -68.29850000
C      -45.09570000     -31.64700000     -69.86650000
H      -47.75090000     -32.06340000     -67.66380000
C      -44.85650000     -30.53630000     -68.97950000
C      -44.11640000     -31.66950000     -70.94120000
C      -43.18800000     -30.64220000     -70.89280000
S      -45.89470000     -30.30910000     -67.63730000
S      -43.43660000     -29.61080000     -69.42590000
H      -42.49180000     -30.36010000     -71.60320000
