40
Properties=species:S:1:pos:R:3 #=T CELL(abcABC):=T 1.889726e+02=T 90.00000=T Traj:=T positionsangstrom=T Step:=T 0=T Bead:=T pbc="F F F"
C      -44.23180000     -30.32440000     -71.80660000
C      -45.59030000     -30.19390000     -71.70670000
C      -46.42120000     -30.68320000     -72.69410000
C      -45.86950000     -31.35720000     -73.77990000
C      -44.45200000     -31.39790000     -74.01940000
C      -43.63630000     -30.78890000     -73.07170000
H      -43.52470000     -30.21250000     -70.91960000
H      -47.45350000     -30.69320000     -72.41100000
H      -44.06770000     -31.64110000     -74.96310000
H      -42.57300000     -30.81550000     -73.18320000
C      -46.68760000     -32.16270000     -74.74510000
H      -46.09460000     -32.54990000     -75.53800000
H      -47.49090000     -31.54140000     -75.15050000
C      -46.18580000     -29.61890000     -70.44650000
H      -45.76300000     -28.61000000     -70.17140000
H      -47.27060000     -29.51490000     -70.48790000
S      -47.71560000     -33.44300000     -73.91340000
S      -45.75560000     -30.73630000     -68.96640000
C      -46.28920000     -34.47110000     -73.43040000
H      -45.74160000     -34.90570000     -74.17860000
H      -45.62290000     -33.82380000     -72.92370000
C      -46.97460000     -32.17370000     -68.95070000
H      -47.98920000     -31.83420000     -69.20290000
H      -47.01220000     -32.39940000     -67.83080000
C      -46.73270000     -33.40130000     -69.83870000
H      -47.56120000     -34.00180000     -69.58440000
H      -46.90240000     -33.06470000     -70.84940000
C      -46.64500000     -35.68790000     -72.39940000
H      -46.82970000     -36.56040000     -73.08890000
H      -47.59640000     -35.42840000     -71.85710000
C      -45.45770000     -36.02980000     -71.55340000
C      -44.75040000     -37.08710000     -71.95970000
C      -45.00250000     -35.28190000     -70.36780000
H      -44.93250000     -37.82040000     -72.81860000
C      -43.76850000     -35.83420000     -70.04380000
C      -45.36150000     -34.09800000     -69.69170000
C      -44.33560000     -33.80950000     -68.75620000
S      -43.25310000     -37.19510000     -71.02770000
S      -43.01680000     -34.96920000     -68.77440000
H      -44.30800000     -32.91570000     -68.13130000
