40
Properties=species:S:1:pos:R:3 #=T CELL(abcABC):=T 1.889726e+02=T 90.00000=T Traj:=T positionsangstrom=T Step:=T 0=T Bead:=T pbc="F F F"
C      -44.16050000     -36.15140000     -74.02090000
C      -45.06680000     -35.18380000     -74.44640000
C      -46.43940000     -35.18440000     -73.89890000
C      -46.76400000     -36.10450000     -72.88660000
C      -45.76470000     -36.92830000     -72.43450000
C      -44.47800000     -36.96050000     -72.93490000
H      -43.20060000     -36.10770000     -74.49060000
H      -47.15940000     -34.45640000     -74.20790000
H      -46.04950000     -37.46590000     -71.50480000
H      -43.81690000     -37.74870000     -72.49930000
C      -48.16040000     -36.04880000     -72.29030000
H      -48.83680000     -36.91750000     -72.33390000
H      -48.70230000     -35.24910000     -72.78050000
C      -44.62350000     -34.06220000     -75.30610000
H      -43.99760000     -34.42710000     -76.11450000
H      -45.36620000     -33.47150000     -75.75520000
S      -48.18780000     -35.92870000     -70.36930000
S      -43.27910000     -33.01270000     -74.59850000
C      -46.76190000     -34.70340000     -70.16700000
H      -46.53640000     -34.64390000     -69.06330000
H      -45.86230000     -35.08230000     -70.72330000
C      -43.99540000     -32.26200000     -73.04330000
H      -45.04430000     -32.15700000     -73.20400000
H      -43.72600000     -31.16780000     -73.00970000
C      -43.59810000     -32.98280000     -71.76280000
H      -44.27900000     -33.90820000     -71.61180000
H      -42.47730000     -33.32450000     -71.76970000
C      -47.07020000     -33.29200000     -70.67270000
H      -48.10580000     -33.01760000     -70.65810000
H      -46.85360000     -33.08540000     -71.72430000
C      -46.42740000     -32.25120000     -69.77690000
C      -47.13400000     -31.57060000     -68.71770000
C      -45.00430000     -31.84050000     -69.79340000
H      -48.24410000     -31.41070000     -68.61500000
C      -44.77770000     -30.83370000     -68.81340000
C      -43.74830000     -32.17930000     -70.51640000
C      -42.67020000     -31.42600000     -70.09590000
S      -46.13210000     -30.39760000     -67.83400000
S      -43.07420000     -30.33150000     -68.78880000
H      -41.64070000     -31.52270000     -70.34230000
