40
Properties=species:S:1:pos:R:3 #=T CELL(abcABC):=T 1.889726e+02=T 90.00000=T Traj:=T positionsangstrom=T Step:=T 0=T Bead:=T pbc="F F F"
C      -44.26910000     -29.93010000     -72.18360000
C      -45.57650000     -30.26820000     -71.69930000
C      -46.41360000     -31.04700000     -72.60840000
C      -45.96320000     -31.45350000     -73.84460000
C      -44.70340000     -31.01770000     -74.33280000
C      -43.91350000     -30.31220000     -73.45360000
H      -43.60850000     -29.50260000     -71.45980000
H      -47.41480000     -31.42260000     -72.31430000
H      -44.61770000     -31.29470000     -75.38280000
H      -42.95840000     -30.01280000     -73.86840000
C      -46.92700000     -32.16760000     -74.83160000
H      -46.31620000     -32.58840000     -75.64560000
H      -47.56600000     -31.45520000     -75.20510000
C      -46.01890000     -29.78320000     -70.38390000
H      -45.64690000     -28.77590000     -70.28700000
H      -47.11340000     -29.76760000     -70.22010000
S      -47.77110000     -33.64260000     -74.06960000
S      -45.32230000     -30.74730000     -68.93660000
C      -46.26500000     -34.36190000     -73.40610000
H      -45.70040000     -34.75690000     -74.27170000
H      -45.70810000     -33.66910000     -72.89070000
C      -46.64330000     -31.97320000     -68.83840000
H      -47.62650000     -31.47530000     -68.84820000
H      -46.54750000     -32.32160000     -67.84690000
C      -46.46030000     -33.11920000     -69.85630000
H      -47.29160000     -33.82320000     -69.79010000
H      -46.44230000     -32.85130000     -70.89880000
C      -46.66090000     -35.48260000     -72.40390000
H      -47.00100000     -36.29980000     -72.99510000
H      -47.50110000     -35.11320000     -71.88230000
C      -45.46350000     -35.90060000     -71.58670000
C      -44.84140000     -37.04960000     -71.87790000
C      -44.97200000     -35.18640000     -70.44880000
H      -45.08310000     -37.72160000     -72.65460000
C      -43.88950000     -35.97080000     -69.94200000
C      -45.28320000     -34.02640000     -69.61830000
C      -44.36390000     -33.90560000     -68.58800000
S      -43.43230000     -37.30510000     -70.85360000
S      -43.13950000     -35.26270000     -68.55010000
H      -44.19290000     -33.17190000     -67.82440000
