40
Properties=species:S:1:pos:R:3 #=T CELL(abcABC):=T 1.889726e+02=T 90.00000=T Traj:=T positionsangstrom=T Step:=T 0=T Bead:=T pbc="F F F"
C      -43.99520000     -36.12260000     -73.97890000
C      -44.89720000     -35.13990000     -74.34440000
C      -46.22630000     -35.11500000     -73.83100000
C      -46.68040000     -36.23040000     -73.02410000
C      -45.74780000     -37.17710000     -72.71500000
C      -44.37520000     -37.12480000     -73.07620000
H      -42.99310000     -36.06080000     -74.31070000
H      -46.88380000     -34.28740000     -74.17510000
H      -46.09580000     -38.08870000     -72.11440000
H      -43.62750000     -37.91100000     -72.79590000
C      -48.02220000     -36.07920000     -72.39480000
H      -48.61080000     -36.98880000     -72.51480000
H      -48.60460000     -35.23860000     -72.71450000
C      -44.58690000     -33.99740000     -75.26200000
H      -44.17270000     -34.27190000     -76.30170000
H      -45.44670000     -33.33690000     -75.40600000
S      -48.00050000     -35.98180000     -70.50760000
S      -43.25270000     -33.01120000     -74.41900000
C      -47.06670000     -34.57900000     -69.89010000
H      -47.37020000     -34.46030000     -68.88890000
H      -46.03390000     -34.86890000     -69.88530000
C      -44.29600000     -32.44510000     -72.97780000
H      -45.35250000     -32.61310000     -73.20020000
H      -44.08540000     -31.33430000     -72.92760000
C      -43.91110000     -33.14110000     -71.65980000
H      -44.61850000     -33.87720000     -71.42290000
H      -42.98660000     -33.63230000     -71.84770000
C      -47.15620000     -33.20050000     -70.56530000
H      -48.19720000     -33.05750000     -70.69230000
H      -46.58890000     -33.28140000     -71.58840000
C      -46.45810000     -32.16720000     -69.76410000
C      -47.17650000     -31.39730000     -68.82120000
C      -45.01070000     -31.83060000     -69.70700000
H      -48.24350000     -31.33790000     -68.64270000
C      -44.80190000     -30.79950000     -68.85000000
C      -43.82460000     -32.14470000     -70.52800000
C      -42.76170000     -31.38590000     -70.17430000
S      -46.10390000     -30.33100000     -67.83140000
S      -43.12760000     -30.27890000     -68.84760000
H      -41.81600000     -31.34070000     -70.66810000
