40
Properties=species:S:1:pos:R:3 #=T CELL(abcABC):=T 1.889726e+02=T 90.00000=T Traj:=T positionsangstrom=T Step:=T 0=T Bead:=T pbc="F F F"
C      -44.34210000     -36.42800000     -74.63180000
C      -45.27370000     -35.42050000     -74.56860000
C      -46.23900000     -35.32800000     -73.51720000
C      -46.34430000     -36.41150000     -72.60930000
C      -45.40760000     -37.45890000     -72.66450000
C      -44.46340000     -37.47990000     -73.69690000
H      -43.70010000     -36.48280000     -75.53220000
H      -47.07920000     -34.53930000     -73.54040000
H      -45.41270000     -38.42760000     -72.06430000
H      -43.84140000     -38.42590000     -73.81590000
C      -47.43620000     -36.44060000     -71.56900000
H      -48.01810000     -37.36800000     -71.76430000
H      -48.19250000     -35.61770000     -71.68110000
C      -45.05960000     -34.23250000     -75.42770000
H      -44.76280000     -34.48100000     -76.45650000
H      -45.98150000     -33.59990000     -75.53650000
S      -46.78030000     -36.58960000     -69.74400000
S      -43.75750000     -33.09820000     -74.82890000
C      -46.21960000     -34.86940000     -69.26330000
H      -46.05490000     -34.91910000     -68.18150000
H      -45.14520000     -34.88590000     -69.76740000
C      -44.60030000     -32.11840000     -73.47960000
H      -45.64160000     -31.98840000     -73.82380000
H      -44.03930000     -31.19980000     -73.56570000
C      -44.42020000     -32.63110000     -72.04660000
H      -45.19450000     -33.27440000     -71.72160000
H      -43.57450000     -33.28990000     -72.05120000
C      -47.03750000     -33.60460000     -69.58960000
H      -47.89190000     -33.53110000     -68.86980000
H      -47.43910000     -33.72280000     -70.61390000
C      -46.29010000     -32.34250000     -69.19170000
C      -46.60860000     -31.85270000     -67.96640000
C      -45.27840000     -31.50350000     -69.84290000
H      -47.23820000     -32.40140000     -67.27810000
C      -44.95450000     -30.41040000     -69.01000000
C      -44.45560000     -31.52130000     -71.01770000
C      -43.61680000     -30.45620000     -71.13010000
S      -45.82180000     -30.30690000     -67.52780000
S      -43.72300000     -29.36690000     -69.69770000
H      -42.76620000     -30.34900000     -71.76490000
