40
Properties=species:S:1:pos:R:3 #=T CELL(abcABC):=T 1.889726e+02=T 90.00000=T Traj:=T positionsangstrom=T Step:=T 0=T Bead:=T pbc="F F F"
C      -44.23880000     -36.50940000     -74.56460000
C      -45.11340000     -35.43200000     -74.40750000
C      -46.23010000     -35.54660000     -73.50230000
C      -46.29200000     -36.60430000     -72.57280000
C      -45.33190000     -37.60260000     -72.68170000
C      -44.32740000     -37.57610000     -73.62600000
H      -43.29430000     -36.40720000     -75.16310000
H      -46.85750000     -34.64690000     -73.43220000
H      -45.24380000     -38.34390000     -71.85350000
H      -43.65860000     -38.41770000     -73.56400000
C      -47.40660000     -36.47110000     -71.52500000
H      -48.13130000     -37.29190000     -71.64130000
H      -47.94660000     -35.55820000     -71.72160000
C      -45.13600000     -34.19230000     -75.29460000
H      -44.86350000     -34.47400000     -76.30290000
H      -46.12570000     -33.71020000     -75.25740000
S      -46.82720000     -36.53160000     -69.84090000
S      -43.79120000     -32.98130000     -74.85200000
C      -45.76120000     -35.01370000     -69.46290000
H      -45.33430000     -35.13200000     -68.54140000
H      -44.88670000     -34.97670000     -70.11550000
C      -44.46780000     -31.83480000     -73.61650000
H      -45.40280000     -31.34280000     -73.87690000
H      -43.74320000     -30.98380000     -73.54080000
C      -44.73390000     -32.47180000     -72.23800000
H      -45.73600000     -32.87990000     -72.28200000
H      -44.01440000     -33.38070000     -72.12270000
C      -46.62780000     -33.75540000     -69.66800000
H      -47.63800000     -34.00360000     -69.27280000
H      -46.77990000     -33.51310000     -70.68600000
C      -46.22280000     -32.41880000     -69.06290000
C      -46.60280000     -31.90030000     -67.85510000
C      -45.28280000     -31.52500000     -69.73920000
H      -47.36620000     -32.26980000     -67.23940000
C      -44.97160000     -30.42170000     -68.92440000
C      -44.64140000     -31.50670000     -71.03740000
C      -43.85320000     -30.39190000     -71.14930000
S      -45.86070000     -30.35480000     -67.44490000
S      -43.95770000     -29.27890000     -69.75120000
H      -43.28670000     -30.09210000     -72.04340000
