40
Properties=species:S:1:pos:R:3 #=T CELL(abcABC):=T 1.889726e+02=T 90.00000=T Traj:=T positionsangstrom=T Step:=T 0=T Bead:=T pbc="F F F"
C      -44.17100000     -30.25430000     -72.28550000
C      -45.62720000     -30.40800000     -72.12750000
C      -46.35190000     -31.18320000     -73.02310000
C      -45.74380000     -31.67630000     -74.20490000
C      -44.39430000     -31.47540000     -74.31060000
C      -43.57430000     -30.83280000     -73.40320000
H      -43.60380000     -29.68220000     -71.51090000
H      -47.41560000     -31.26650000     -72.80850000
H      -43.78000000     -31.92280000     -75.14970000
H      -42.50230000     -30.76040000     -73.54540000
C      -46.56980000     -32.50440000     -75.16120000
H      -45.96500000     -32.95010000     -76.00030000
H      -47.42320000     -32.00800000     -75.58390000
C      -46.35050000     -29.76680000     -71.03280000
H      -45.86580000     -28.76270000     -70.88810000
H      -47.36370000     -29.69230000     -71.15430000
S      -47.38070000     -33.85830000     -74.25480000
S      -46.10230000     -30.58680000     -69.37400000
C      -45.95170000     -34.75330000     -73.57100000
H      -45.61330000     -35.41060000     -74.38120000
H      -45.10250000     -34.15050000     -73.27930000
C      -47.20770000     -32.05240000     -69.39240000
H      -48.19260000     -31.69810000     -69.74040000
H      -47.41390000     -32.10010000     -68.32660000
C      -46.72020000     -33.33110000     -70.08370000
H      -47.53960000     -34.13840000     -69.98480000
H      -46.40610000     -33.15030000     -71.17580000
C      -46.32920000     -35.56540000     -72.29140000
H      -46.88550000     -36.39810000     -72.62940000
H      -47.04540000     -34.95310000     -71.75390000
C      -45.14900000     -35.81620000     -71.35260000
C      -44.14740000     -36.69240000     -71.70960000
C      -44.96840000     -35.15350000     -70.07580000
H      -44.13710000     -37.30130000     -72.57320000
C      -43.87530000     -35.69460000     -69.41860000
C      -45.57690000     -34.02530000     -69.44590000
C      -45.00100000     -33.75920000     -68.20270000
S      -42.96370000     -36.84250000     -70.33400000
S      -43.58880000     -34.82310000     -67.88340000
H      -45.24410000     -32.92700000     -67.57490000
