40
Properties=species:S:1:pos:R:3 #=T CELL(abcABC):=T 1.889726e+02=T 90.00000=T Traj:=T positionsangstrom=T Step:=T 0=T Bead:=T pbc="F F F"
C      -44.14660000     -36.35300000     -74.31500000
C      -45.10580000     -35.32460000     -74.20010000
C      -46.14540000     -35.42000000     -73.23510000
C      -46.31760000     -36.62070000     -72.50200000
C      -45.41690000     -37.67100000     -72.68330000
C      -44.33570000     -37.47830000     -73.55140000
H      -43.47110000     -36.25600000     -75.16080000
H      -46.89310000     -34.73020000     -73.15780000
H      -45.53590000     -38.61480000     -72.25430000
H      -43.63440000     -38.23280000     -73.69220000
C      -47.34720000     -36.85180000     -71.46020000
H      -47.74300000     -37.89230000     -71.34290000
H      -48.16840000     -36.13250000     -71.49920000
C      -45.05120000     -34.20760000     -75.16340000
H      -44.89210000     -34.62570000     -76.20270000
H      -46.02790000     -33.71230000     -75.26210000
S      -46.57920000     -36.59040000     -69.73440000
S      -43.71350000     -33.00530000     -74.89430000
C      -45.81080000     -34.94220000     -69.98560000
H      -45.01440000     -34.80210000     -69.15530000
H      -45.36880000     -34.86850000     -70.98390000
C      -44.47340000     -31.80310000     -73.66330000
H      -45.32170000     -31.36640000     -74.10160000
H      -43.66760000     -31.11170000     -73.59100000
C      -44.74180000     -32.42700000     -72.29950000
H      -45.59500000     -33.05960000     -72.36540000
H      -43.94000000     -33.03600000     -71.96850000
C      -46.80240000     -33.76560000     -69.69940000
H      -47.51120000     -34.07870000     -68.92510000
H      -47.35500000     -33.54150000     -70.66050000
C      -46.19480000     -32.47950000     -69.18390000
C      -46.40580000     -32.16740000     -67.87970000
C      -45.35590000     -31.47580000     -69.84420000
H      -46.99800000     -32.69010000     -67.19860000
C      -45.07360000     -30.40140000     -69.01190000
C      -44.72080000     -31.31230000     -71.14370000
C      -44.06910000     -30.06120000     -71.20480000
S      -45.90510000     -30.53280000     -67.46490000
S      -44.12770000     -29.14050000     -69.72850000
H      -43.45980000     -29.69090000     -72.09490000
