40
Properties=species:S:1:pos:R:3 #=T CELL(abcABC):=T 1.889726e+02=T 90.00000=T Traj:=T positionsangstrom=T Step:=T 0=T Bead:=T pbc="F F F"
C      -44.77430000     -29.60000000     -72.72620000
C      -46.07700000     -30.13950000     -72.50930000
C      -46.57860000     -31.16720000     -73.30370000
C      -45.79680000     -31.64670000     -74.40670000
C      -44.48740000     -31.14050000     -74.51780000
C      -44.02330000     -30.13120000     -73.72480000
H      -44.39990000     -28.83660000     -72.12570000
H      -47.51280000     -31.59190000     -73.06130000
H      -44.00880000     -31.52820000     -75.44900000
H      -42.97960000     -29.81580000     -73.91030000
C      -46.37060000     -32.72960000     -75.16860000
H      -45.74680000     -32.97210000     -76.01170000
H      -47.38260000     -32.38500000     -75.62100000
C      -46.92410000     -29.73070000     -71.36930000
H      -46.85420000     -28.61490000     -71.11690000
H      -47.98160000     -29.93630000     -71.45600000
S      -46.85900000     -34.34870000     -74.36130000
S      -46.39360000     -30.42480000     -69.67850000
C      -45.44390000     -34.79660000     -73.33720000
H      -44.70510000     -35.07800000     -74.01390000
H      -45.07550000     -33.88730000     -72.86200000
C      -47.09030000     -32.08620000     -69.76140000
H      -48.15260000     -32.12130000     -70.14600000
H      -47.24640000     -32.55570000     -68.73100000
C      -46.15780000     -33.04940000     -70.48730000
H      -46.79030000     -33.83130000     -70.94500000
H      -45.58320000     -32.54770000     -71.35410000
C      -45.78780000     -35.98290000     -72.34170000
H      -45.88000000     -36.90510000     -72.87430000
H      -46.81520000     -35.86230000     -72.02750000
C      -44.87030000     -36.06760000     -71.14190000
C      -44.22020000     -37.22570000     -70.92650000
C      -44.82390000     -35.21300000     -69.97890000
H      -44.12610000     -37.92940000     -71.66600000
C      -43.92200000     -35.67010000     -69.04220000
C      -45.15680000     -33.84330000     -69.60110000
C      -44.71670000     -33.41300000     -68.42030000
S      -43.32440000     -37.21090000     -69.41170000
S      -43.68270000     -34.62830000     -67.66830000
H      -44.93890000     -32.52840000     -67.87000000
