40
Properties=species:S:1:pos:R:3 #=T CELL(abcABC):=T 1.889726e+02=T 90.00000=T Traj:=T positionsangstrom=T Step:=T 0=T Bead:=T pbc="F F F"
C      -44.81690000     -29.94260000     -72.40940000
C      -46.15900000     -30.42110000     -72.43000000
C      -46.48330000     -31.41950000     -73.35890000
C      -45.59910000     -31.84040000     -74.34910000
C      -44.26590000     -31.39780000     -74.33230000
C      -43.87590000     -30.55670000     -73.27010000
H      -44.48190000     -29.28590000     -71.66610000
H      -47.45660000     -31.91130000     -73.36040000
H      -43.59570000     -31.70780000     -75.10240000
H      -42.86890000     -30.17780000     -73.20330000
C      -46.03410000     -32.82800000     -75.43680000
H      -45.14630000     -32.94370000     -76.13310000
H      -46.88390000     -32.50280000     -76.07170000
C      -47.15470000     -29.90100000     -71.34660000
H      -47.27190000     -28.85590000     -71.51930000
H      -48.13360000     -30.36010000     -71.43030000
S      -46.49410000     -34.48740000     -74.70210000
S      -46.61430000     -30.25410000     -69.56490000
C      -45.47470000     -34.73500000     -73.27430000
H      -44.51810000     -35.19740000     -73.54120000
H      -45.23170000     -33.75290000     -72.79500000
C      -47.27930000     -32.05110000     -69.22180000
H      -48.35660000     -32.03380000     -69.50820000
H      -47.12930000     -32.15600000     -68.12060000
C      -46.69940000     -33.15570000     -70.10610000
H      -47.43180000     -33.99670000     -70.06770000
H      -46.63690000     -32.78390000     -71.13090000
C      -46.08150000     -35.60830000     -72.18750000
H      -46.40750000     -36.57070000     -72.55990000
H      -46.89420000     -35.03250000     -71.70670000
C      -45.05890000     -35.97510000     -71.12370000
C      -44.24450000     -37.09360000     -71.05200000
C      -44.90950000     -35.09750000     -69.96630000
H      -44.15510000     -37.88930000     -71.84990000
C      -43.92550000     -35.55190000     -69.12170000
C      -45.49440000     -33.84180000     -69.60360000
C      -44.77390000     -33.32150000     -68.51760000
S      -43.16940000     -37.06460000     -69.69090000
S      -43.52960000     -34.37540000     -67.88240000
H      -44.75850000     -32.31490000     -68.30060000
