40
Properties=species:S:1:pos:R:3 #=T CELL(abcABC):=T 1.889726e+02=T 90.00000=T Traj:=T positionsangstrom=T Step:=T 0=T Bead:=T pbc="F F F"
C      -47.15070000     -31.68480000     -71.52180000
C      -45.91320000     -31.58660000     -72.13720000
C      -45.63090000     -32.40680000     -73.23080000
C      -46.51810000     -33.44120000     -73.62730000
C      -47.85390000     -33.41060000     -73.12900000
C      -48.11380000     -32.56230000     -72.04010000
H      -47.34710000     -31.08680000     -70.61810000
H      -44.58110000     -32.40140000     -73.62710000
H      -48.56530000     -34.08840000     -73.64240000
H      -49.03400000     -32.65080000     -71.50460000
C      -46.12590000     -34.33360000     -74.73470000
H      -45.30360000     -33.94610000     -75.33830000
H      -46.96970000     -34.64060000     -75.33130000
C      -44.87170000     -30.67350000     -71.60680000
H      -45.10960000     -29.62510000     -71.68940000
H      -44.65990000     -30.78560000     -70.52620000
S      -45.36990000     -35.84220000     -73.97470000
S      -43.16990000     -30.85200000     -72.43990000
C      -43.90520000     -35.32730000     -72.93640000
H      -42.98400000     -35.55160000     -73.44010000
H      -44.07080000     -34.17640000     -72.94220000
C      -42.19340000     -31.37640000     -71.05170000
H      -42.35650000     -30.70480000     -70.18370000
H      -41.13460000     -31.33960000     -71.19510000
C      -42.60030000     -32.82270000     -70.50740000
H      -42.57440000     -33.63270000     -71.28520000
H      -41.73480000     -33.28220000     -70.01150000
C      -43.93970000     -35.87450000     -71.48940000
H      -42.92520000     -35.62140000     -71.04440000
H      -44.08710000     -36.99490000     -71.52640000
C      -45.06580000     -35.29060000     -70.60920000
C      -46.24940000     -35.97070000     -70.46350000
C      -44.89910000     -34.03720000     -69.84200000
H      -46.60690000     -36.71940000     -71.22080000
C      -46.07180000     -33.75220000     -69.10830000
C      -43.85110000     -33.00960000     -69.69650000
C      -44.24900000     -32.07770000     -68.68510000
S      -47.31920000     -35.02260000     -69.26200000
S      -45.86500000     -32.34860000     -68.05990000
H      -43.60450000     -31.16070000     -68.50880000
