40
Properties=species:S:1:pos:R:3 #=T CELL(abcABC):=T 1.889726e+02=T 90.00000=T Traj:=T positionsangstrom=T Step:=T 0=T Bead:=T pbc="F F F"
C      -42.77780000     -36.61460000     -69.66320000
C      -42.45000000     -35.25820000     -70.02220000
C      -42.55590000     -34.91180000     -71.34940000
C      -42.86760000     -35.85190000     -72.33840000
C      -42.95780000     -37.19240000     -71.95430000
C      -42.94640000     -37.58330000     -70.60800000
H      -42.72060000     -37.03410000     -68.69950000
H      -42.48630000     -33.85520000     -71.68780000
H      -43.18670000     -37.92360000     -72.74780000
H      -43.13770000     -38.62770000     -70.39390000
C      -42.88350000     -35.30210000     -73.76320000
H      -42.25310000     -35.89020000     -74.49600000
H      -42.37180000     -34.32760000     -73.80790000
C      -42.08300000     -34.19390000     -68.94540000
H      -41.43450000     -34.65210000     -68.19270000
H      -41.59800000     -33.31360000     -69.45010000
S      -44.52520000     -35.14970000     -74.51980000
S      -43.42000000     -33.59350000     -67.89310000
C      -45.54530000     -34.07630000     -73.44470000
H      -46.58800000     -34.26670000     -73.70580000
H      -45.43320000     -34.43450000     -72.48080000
C      -44.50550000     -32.46710000     -69.02880000
H      -43.89410000     -31.69450000     -69.46370000
H      -45.11190000     -32.00330000     -68.33340000
C      -45.43580000     -33.21100000     -70.01740000
H      -44.81900000     -33.48140000     -70.86090000
H      -45.82960000     -34.11910000     -69.65220000
C      -45.25370000     -32.51160000     -73.39690000
H      -45.20560000     -32.12960000     -74.42290000
H      -44.29900000     -32.30830000     -72.87700000
C      -46.51490000     -31.69920000     -72.85390000
C      -47.30490000     -30.93640000     -73.70080000
C      -46.97620000     -31.66140000     -71.50980000
H      -47.16090000     -30.73250000     -74.82440000
C      -48.26890000     -31.04960000     -71.45160000
C      -46.57590000     -32.25740000     -70.24310000
C      -47.51040000     -31.99070000     -69.24100000
S      -48.79600000     -30.38830000     -72.92000000
S      -48.92070000     -31.04420000     -69.77580000
H      -47.49630000     -32.55700000     -68.26600000
