40
Properties=species:S:1:pos:R:3 #=T CELL(abcABC):=T 1.889726e+02=T 90.00000=T Traj:=T positionsangstrom=T Step:=T 0=T Bead:=T pbc="F F F"
C      -42.87490000     -36.14080000     -69.60450000
C      -42.33010000     -34.89920000     -70.11070000
C      -42.19160000     -34.69780000     -71.47590000
C      -42.63680000     -35.64410000     -72.38350000
C      -43.06180000     -36.87880000     -71.92400000
C      -43.16870000     -37.08290000     -70.54910000
H      -43.06050000     -36.21950000     -68.55940000
H      -41.90070000     -33.73420000     -71.79470000
H      -43.44900000     -37.63440000     -72.55760000
H      -43.69190000     -38.01360000     -70.22830000
C      -42.74480000     -35.33610000     -73.82210000
H      -42.14260000     -36.10090000     -74.35670000
H      -42.34530000     -34.36810000     -74.05640000
C      -41.89680000     -33.88490000     -69.14090000
H      -41.19100000     -34.27130000     -68.27090000
H      -41.44000000     -32.99830000     -69.55770000
S      -44.57820000     -35.49930000     -74.41140000
S      -43.34180000     -33.29100000     -68.03030000
C      -45.73600000     -34.48020000     -73.32500000
H      -46.72420000     -34.48660000     -73.94340000
H      -45.98860000     -35.11380000     -72.37980000
C      -44.35620000     -32.26940000     -69.19220000
H      -43.67170000     -32.00190000     -70.09060000
H      -44.63300000     -31.31670000     -68.73680000
C      -45.60690000     -33.11320000     -69.51480000
H      -45.35050000     -33.93230000     -70.20560000
H      -45.86570000     -33.65940000     -68.56790000
C      -45.32510000     -33.02740000     -72.98650000
H      -44.78130000     -32.60110000     -73.83250000
H      -44.76400000     -32.99170000     -72.04550000
C      -46.52230000     -32.24880000     -72.67070000
C      -47.28150000     -31.71740000     -73.69620000
C      -47.17450000     -32.02910000     -71.38140000
H      -47.04480000     -31.77420000     -74.74410000
C      -48.22390000     -31.10210000     -71.49880000
C      -46.86510000     -32.36880000     -70.04300000
C      -47.75000000     -31.67300000     -69.13210000
S      -48.66560000     -30.80500000     -73.14010000
S      -48.92280000     -30.65120000     -70.00430000
H      -47.88920000     -31.96420000     -68.12200000
