40
Properties=species:S:1:pos:R:3 #=T CELL(abcABC):=T 1.889726e+02=T 90.00000=T Traj:=T positionsangstrom=T Step:=T 0=T Bead:=T pbc="F F F"
C      -42.63350000     -36.44130000     -69.57240000
C      -42.40130000     -35.10200000     -69.98380000
C      -42.68430000     -34.69270000     -71.30620000
C      -43.02560000     -35.67290000     -72.28460000
C      -43.21000000     -37.01310000     -71.79040000
C      -43.01860000     -37.41640000     -70.48670000
H      -42.39100000     -36.71790000     -68.53150000
H      -42.54100000     -33.62350000     -71.53130000
H      -43.43540000     -37.77300000     -72.49830000
H      -43.23280000     -38.48860000     -70.19370000
C      -42.96240000     -35.31870000     -73.74160000
H      -42.31260000     -36.02810000     -74.23650000
H      -42.52280000     -34.33140000     -73.97660000
C      -41.93800000     -33.96940000     -68.98320000
H      -41.15130000     -34.34490000     -68.38140000
H      -41.59970000     -33.19040000     -69.60950000
S      -44.55690000     -35.32040000     -74.61560000
S      -43.21660000     -33.29470000     -67.93530000
C      -45.60950000     -34.40080000     -73.30690000
H      -46.58600000     -34.51930000     -73.63620000
H      -45.49960000     -34.83950000     -72.35820000
C      -44.30040000     -32.44930000     -69.20760000
H      -43.69600000     -32.31230000     -70.03230000
H      -44.58200000     -31.49850000     -68.79030000
C      -45.57230000     -33.19780000     -69.54600000
H      -45.26730000     -33.98620000     -70.22040000
H      -46.00910000     -33.70170000     -68.68150000
C      -45.32790000     -32.83610000     -73.27430000
H      -45.10500000     -32.45160000     -74.27810000
H      -44.39000000     -32.68880000     -72.70460000
C      -46.46160000     -31.96740000     -72.83720000
C      -47.26320000     -31.37960000     -73.76820000
C      -47.04440000     -31.80200000     -71.47050000
H      -47.02890000     -31.28010000     -74.86660000
C      -48.16340000     -31.05950000     -71.48290000
C      -46.64120000     -32.19660000     -70.08750000
C      -47.62040000     -31.74100000     -69.19410000
S      -48.70680000     -30.64680000     -73.09270000
S      -49.01420000     -30.94760000     -69.97070000
H      -47.46500000     -31.83900000     -68.14010000
