40
Properties=species:S:1:pos:R:3 #=T CELL(abcABC):=T 1.889726e+02=T 90.00000=T Traj:=T positionsangstrom=T Step:=T 0=T Bead:=T pbc="F F F"
C      -48.11530000     -30.32850000     -70.58700000
C      -46.84980000     -30.06750000     -71.11990000
C      -46.47940000     -30.79890000     -72.31260000
C      -47.31250000     -31.70790000     -72.91510000
C      -48.62820000     -31.80220000     -72.42060000
C      -48.95930000     -31.18970000     -71.24940000
H      -48.25130000     -29.89310000     -69.59170000
H      -45.46420000     -30.73140000     -72.60480000
H      -49.31210000     -32.41890000     -73.10480000
H      -49.98010000     -31.41010000     -70.81250000
C      -46.88220000     -32.58120000     -74.07380000
H      -45.85900000     -32.36040000     -74.50460000
H      -47.51930000     -32.26430000     -74.90240000
C      -45.84360000     -29.19320000     -70.44540000
H      -45.14970000     -28.84070000     -71.28440000
H      -46.36640000     -28.37440000     -69.93100000
S      -47.03070000     -34.46560000     -73.86310000
S      -44.83170000     -30.15090000     -69.24750000
C      -47.64610000     -34.80680000     -72.17350000
H      -48.55980000     -34.21290000     -72.10680000
H      -48.02300000     -35.79720000     -72.21070000
C      -44.25660000     -31.54660000     -70.16290000
H      -43.22120000     -31.40070000     -70.59250000
H      -45.02490000     -31.89880000     -70.88380000
C      -44.31520000     -32.82600000     -69.18550000
H      -43.84160000     -32.57620000     -68.16410000
H      -45.31450000     -33.15130000     -69.08080000
C      -46.66840000     -34.61590000     -71.01380000
H      -47.13470000     -34.99850000     -70.06480000
H      -46.39930000     -33.57420000     -71.01050000
C      -45.31990000     -35.30780000     -71.32720000
C      -45.22740000     -36.37190000     -72.20520000
C      -44.02420000     -34.90190000     -70.77610000
H      -45.98230000     -36.80160000     -72.80570000
C      -43.01760000     -35.81500000     -71.13100000
C      -43.54920000     -33.97950000     -69.80470000
C      -42.17080000     -34.10510000     -69.55250000
S      -43.61180000     -37.18200000     -72.13990000
S      -41.55860000     -35.59530000     -70.31980000
H      -41.58560000     -33.48150000     -68.84070000
