40
Properties=species:S:1:pos:R:3 #=T CELL(abcABC):=T 1.889726e+02=T 90.00000=T Traj:=T positionsangstrom=T Step:=T 0=T Bead:=T pbc="F F F"
C      -43.46570000     -37.09780000     -70.66600000
C      -44.83070000     -36.86720000     -70.85240000
C      -45.22330000     -36.34980000     -72.08860000
C      -44.40120000     -36.16740000     -73.16640000
C      -43.03900000     -36.49490000     -72.98750000
C      -42.56340000     -36.84850000     -71.71730000
H      -43.14470000     -37.48420000     -69.68680000
H      -46.23130000     -36.08840000     -72.10920000
H      -42.33360000     -36.36840000     -73.78620000
H      -41.53500000     -37.13040000     -71.59290000
C      -44.85070000     -35.89870000     -74.53880000
H      -45.30000000     -36.78620000     -75.01640000
H      -43.93990000     -35.65480000     -75.20940000
C      -45.83790000     -37.06060000     -69.76700000
H      -46.77200000     -36.73890000     -70.21100000
H      -45.94890000     -38.10520000     -69.43540000
S      -46.09100000     -34.50160000     -74.90510000
S      -45.46930000     -35.90600000     -68.31800000
C      -45.50500000     -32.91160000     -74.13100000
H      -44.42280000     -32.97250000     -74.00370000
H      -45.66250000     -31.98000000     -74.72370000
C      -45.69210000     -34.23030000     -68.98430000
H      -46.12760000     -33.62950000     -68.18020000
H      -46.46000000     -34.25950000     -69.72010000
C      -44.51750000     -33.38140000     -69.61010000
H      -43.58410000     -33.43380000     -69.10360000
H      -44.19640000     -33.77060000     -70.63410000
C      -46.27260000     -32.78960000     -72.81670000
H      -45.93320000     -33.57240000     -72.12810000
H      -47.32840000     -33.10820000     -73.11490000
C      -46.27300000     -31.51180000     -72.12580000
C      -46.84540000     -30.35760000     -72.66530000
C      -45.67070000     -31.18410000     -70.86660000
H      -47.22610000     -30.43190000     -73.65060000
C      -45.83930000     -29.81330000     -70.51590000
C      -44.93330000     -31.94730000     -69.86540000
C      -44.50430000     -31.10640000     -68.81710000
S      -46.71820000     -28.89670000     -71.67210000
S      -45.09300000     -29.35500000     -69.03510000
H      -43.93590000     -31.36040000     -67.96360000
