40
Properties=species:S:1:pos:R:3 #=T CELL(abcABC):=T 1.889726e+02=T 90.00000=T Traj:=T positionsangstrom=T Step:=T 0=T Bead:=T pbc="F F F"
C      -41.91690000     -31.82940000     -69.56650000
C      -42.07800000     -32.30960000     -70.89740000
C      -42.82100000     -31.54370000     -71.84420000
C      -43.52500000     -30.41130000     -71.35790000
C      -43.24430000     -29.88390000     -70.10480000
C      -42.52510000     -30.64700000     -69.16940000
H      -41.28610000     -32.24730000     -68.74540000
H      -42.88830000     -31.93060000     -72.81990000
H      -43.70570000     -29.04050000     -69.84620000
H      -42.36460000     -30.26520000     -68.19230000
C      -44.30710000     -29.46320000     -72.30070000
H      -43.70080000     -28.85590000     -72.90320000
H      -44.82960000     -28.76680000     -71.69180000
C      -41.53110000     -33.63120000     -71.31830000
H      -41.40550000     -33.67380000     -72.37000000
H      -40.46520000     -33.82440000     -71.06500000
S      -45.41350000     -30.44150000     -73.46820000
S      -42.51900000     -35.10360000     -70.75300000
C      -46.19980000     -31.58160000     -72.14940000
H      -45.36110000     -32.02840000     -71.62330000
H      -46.83680000     -30.97680000     -71.51790000
C      -43.46450000     -35.56210000     -72.33920000
H      -43.53340000     -36.66080000     -72.20360000
H      -42.76730000     -35.41490000     -73.18920000
C      -44.79880000     -34.91660000     -72.57890000
H      -44.48720000     -33.88940000     -72.48570000
H      -45.15770000     -35.09680000     -73.62730000
C      -46.97310000     -32.65210000     -72.97120000
H      -46.25180000     -33.25450000     -73.51840000
H      -47.62880000     -32.04620000     -73.61460000
C      -47.84100000     -33.49230000     -71.99240000
C      -49.13660000     -33.34700000     -71.58030000
C      -47.20640000     -34.66180000     -71.42540000
H      -49.87490000     -32.66860000     -71.98450000
C      -48.02160000     -35.29580000     -70.50980000
C      -45.92470000     -35.34400000     -71.55350000
C      -45.80590000     -36.46990000     -70.76730000
S      -49.60860000     -34.58890000     -70.41590000
S      -47.32860000     -36.73680000     -69.89330000
H      -44.95040000     -37.11410000     -70.69840000
