40
Properties=species:S:1:pos:R:3 #=T CELL(abcABC):=T 1.889726e+02=T 90.00000=T Traj:=T positionsangstrom=T Step:=T 0=T Bead:=T pbc="F F F"
C      -42.07550000     -32.02360000     -69.49720000
C      -42.08520000     -32.30190000     -70.89490000
C      -42.84410000     -31.52190000     -71.78040000
C      -43.46850000     -30.34110000     -71.31970000
C      -43.36160000     -30.00860000     -69.94730000
C      -42.59960000     -30.76190000     -69.10660000
H      -41.65310000     -32.77100000     -68.77360000
H      -42.92030000     -31.76840000     -72.84090000
H      -43.88770000     -29.22930000     -69.48710000
H      -42.52640000     -30.57830000     -68.04210000
C      -44.23020000     -29.51920000     -72.29640000
H      -43.51310000     -28.97030000     -73.03710000
H      -44.85230000     -28.72180000     -71.83420000
C      -41.49150000     -33.56200000     -71.37050000
H      -41.28210000     -33.49360000     -72.45360000
H      -40.56630000     -33.68220000     -70.79580000
S      -45.36380000     -30.47810000     -73.37980000
S      -42.29630000     -35.20840000     -70.99480000
C      -46.59910000     -31.26000000     -72.25980000
H      -45.99900000     -31.73440000     -71.46650000
H      -47.33750000     -30.52210000     -71.76640000
C      -43.42870000     -35.55530000     -72.46900000
H      -43.53230000     -36.64540000     -72.35280000
H      -42.94460000     -35.38860000     -73.44290000
C      -44.74630000     -34.88300000     -72.49550000
H      -44.58340000     -33.86150000     -72.36590000
H      -45.06700000     -34.90900000     -73.55240000
C      -47.34780000     -32.44840000     -72.96620000
H      -46.66770000     -32.84960000     -73.68570000
H      -48.22490000     -32.05740000     -73.62600000
C      -47.84100000     -33.49870000     -72.01990000
C      -49.07550000     -33.26030000     -71.48480000
C      -47.14570000     -34.65990000     -71.48690000
H      -49.72340000     -32.40450000     -71.73980000
C      -47.98260000     -35.33670000     -70.57260000
C      -45.86820000     -35.39320000     -71.54790000
C      -45.79450000     -36.48560000     -70.73940000
S      -49.53780000     -34.54030000     -70.37600000
S      -47.33950000     -36.76450000     -69.85420000
H      -44.86820000     -36.97430000     -70.51520000
