40
Properties=species:S:1:pos:R:3 #=T CELL(abcABC):=T 1.889726e+02=T 90.00000=T Traj:=T positionsangstrom=T Step:=T 0=T Bead:=T pbc="F F F"
C      -41.72480000     -31.66540000     -69.65260000
C      -42.02290000     -32.17490000     -70.92060000
C      -42.94550000     -31.52220000     -71.76210000
C      -43.43780000     -30.27990000     -71.40690000
C      -43.22620000     -29.80480000     -70.11470000
C      -42.24820000     -30.39740000     -69.32450000
H      -41.19940000     -32.18170000     -68.92200000
H      -43.09960000     -31.91550000     -72.77160000
H      -43.75090000     -28.97020000     -69.77990000
H      -42.07390000     -29.97320000     -68.32100000
C      -44.40790000     -29.53990000     -72.31990000
H      -43.78470000     -28.85950000     -72.91090000
H      -45.08540000     -28.93990000     -71.83970000
C      -41.53620000     -33.61810000     -71.18150000
H      -41.30350000     -33.83930000     -72.25900000
H      -40.65040000     -33.76520000     -70.62360000
S      -45.38980000     -30.58000000     -73.56600000
S      -42.76520000     -34.87510000     -70.60760000
C      -46.46910000     -31.59320000     -72.39190000
H      -45.77530000     -32.05240000     -71.65740000
H      -47.20150000     -30.95400000     -71.97240000
C      -43.32260000     -35.70200000     -72.14010000
H      -43.39530000     -36.79540000     -72.04820000
H      -42.64110000     -35.52030000     -72.99370000
C      -44.74770000     -35.26310000     -72.53230000
H      -44.81510000     -34.20610000     -72.89570000
H      -44.89120000     -35.79320000     -73.46830000
C      -47.09350000     -32.77290000     -73.15590000
H      -46.38270000     -33.25530000     -73.84330000
H      -47.80850000     -32.37230000     -73.87110000
C      -47.78910000     -33.75550000     -72.27780000
C      -49.04600000     -33.48530000     -71.82350000
C      -47.22810000     -34.86380000     -71.49890000
H      -49.68910000     -32.68380000     -72.25180000
C      -48.09390000     -35.42490000     -70.57590000
C      -45.93300000     -35.42500000     -71.55880000
C      -45.75490000     -36.42130000     -70.56510000
S      -49.59830000     -34.54540000     -70.48360000
S      -47.19830000     -36.57970000     -69.56040000
H      -44.84310000     -36.97350000     -70.36710000
