40
Properties=species:S:1:pos:R:3 #=T CELL(abcABC):=T 1.889726e+02=T 90.00000=T Traj:=T positionsangstrom=T Step:=T 0=T Bead:=T pbc="F F F"
C      -42.09760000     -35.05120000     -69.37500000
C      -42.16720000     -34.09950000     -70.35920000
C      -42.66830000     -34.43110000     -71.65750000
C      -42.98560000     -35.79810000     -71.95800000
C      -43.02170000     -36.69450000     -70.88840000
C      -42.55640000     -36.36780000     -69.64120000
H      -41.76700000     -34.78690000     -68.37220000
H      -42.65840000     -33.61150000     -72.39630000
H      -43.37360000     -37.73360000     -71.10500000
H      -42.59540000     -37.06710000     -68.80030000
C      -43.28840000     -36.22380000     -73.36830000
H      -42.77570000     -37.15730000     -73.63340000
H      -42.84680000     -35.58660000     -74.14000000
C      -41.62000000     -32.72640000     -70.16880000
H      -40.58110000     -32.74780000     -69.72350000
H      -41.60970000     -32.20800000     -71.06640000
S      -45.07860000     -36.52400000     -73.81460000
S      -42.63070000     -31.82460000     -68.88700000
C      -45.97850000     -35.26460000     -72.83220000
H      -47.10830000     -35.55910000     -73.00710000
H      -45.85740000     -35.60320000     -71.79800000
C      -44.24880000     -31.49320000     -69.70790000
H      -44.02320000     -31.21150000     -70.66780000
H      -44.72040000     -30.65410000     -69.22120000
C      -45.26560000     -32.69510000     -69.70800000
H      -44.88260000     -33.60230000     -70.23230000
H      -45.26050000     -33.14030000     -68.66610000
C      -45.67060000     -33.79510000     -73.03230000
H      -45.28370000     -33.61670000     -74.06200000
H      -44.85120000     -33.54820000     -72.25110000
C      -46.82180000     -32.84520000     -72.74160000
C      -47.77330000     -32.61630000     -73.66370000
C      -47.10920000     -32.12060000     -71.48970000
H      -47.72370000     -33.10610000     -74.65950000
C      -48.31560000     -31.44470000     -71.59810000
C      -46.57110000     -32.14950000     -70.11680000
C      -47.36220000     -31.42550000     -69.26380000
S      -49.11000000     -31.61350000     -73.13890000
S      -48.80150000     -30.82780000     -70.07340000
H      -47.12140000     -31.06460000     -68.31650000
