40
Properties=species:S:1:pos:R:3 #=T CELL(abcABC):=T 1.889726e+02=T 90.00000=T Traj:=T positionsangstrom=T Step:=T 0=T Bead:=T pbc="F F F"
C      -43.55070000     -36.97020000     -70.79370000
C      -44.94970000     -36.87930000     -71.03120000
C      -45.33550000     -36.58370000     -72.33490000
C      -44.38690000     -36.27960000     -73.34440000
C      -43.02560000     -36.42050000     -73.06530000
C      -42.58710000     -36.83860000     -71.80860000
H      -43.30760000     -37.15300000     -69.76230000
H      -46.43740000     -36.48680000     -72.47760000
H      -42.26730000     -36.16050000     -73.82460000
H      -41.53110000     -36.95460000     -71.54490000
C      -44.75910000     -35.80220000     -74.75160000
H      -45.03810000     -36.71200000     -75.26500000
H      -43.89700000     -35.37670000     -75.23370000
C      -45.86230000     -36.93850000     -69.76940000
H      -46.92340000     -36.80560000     -69.94130000
H      -45.81860000     -37.92740000     -69.24040000
S      -46.11700000     -34.57700000     -74.94390000
S      -45.34760000     -35.88080000     -68.41970000
C      -45.69760000     -33.04280000     -73.99890000
H      -44.55120000     -33.00910000     -73.92010000
H      -46.03630000     -32.28840000     -74.63130000
C      -45.94550000     -34.17580000     -68.91420000
H      -46.07580000     -33.66580000     -67.93320000
H      -46.86390000     -34.18660000     -69.56620000
C      -44.81460000     -33.38690000     -69.60720000
H      -43.90200000     -33.67710000     -69.10410000
H      -44.69610000     -33.82210000     -70.64280000
C      -46.30120000     -32.96030000     -72.58960000
H      -45.87110000     -33.65330000     -71.90270000
H      -47.35580000     -33.20010000     -72.64220000
C      -46.27810000     -31.57590000     -71.99020000
C      -46.82490000     -30.44450000     -72.56170000
C      -45.65780000     -31.12640000     -70.70040000
H      -47.27000000     -30.44970000     -73.51230000
C      -45.71550000     -29.78680000     -70.47930000
C      -45.02320000     -31.90330000     -69.62900000
C      -44.49040000     -30.94480000     -68.73750000
S      -46.66850000     -28.92810000     -71.59180000
S      -44.83370000     -29.26750000     -69.04140000
H      -43.90480000     -31.03120000     -67.90420000
