40
Properties=species:S:1:pos:R:3 #=T CELL(abcABC):=T 1.889726e+02=T 90.00000=T Traj:=T positionsangstrom=T Step:=T 0=T Bead:=T pbc="F F F"
C      -42.08100000     -31.18860000     -69.48380000
C      -42.09560000     -31.88060000     -70.69760000
C      -42.75100000     -31.35070000     -71.79530000
C      -43.40520000     -30.13940000     -71.73540000
C      -43.36110000     -29.39430000     -70.55710000
C      -42.78460000     -30.00130000     -69.40590000
H      -41.54250000     -31.57840000     -68.64620000
H      -42.75750000     -31.91580000     -72.72370000
H      -43.73790000     -28.38590000     -70.56170000
H      -42.67040000     -29.46640000     -68.49860000
C      -44.16450000     -29.64370000     -72.95410000
H      -43.44470000     -29.38500000     -73.74400000
H      -44.82600000     -28.84360000     -72.76210000
C      -41.37520000     -33.18910000     -70.84090000
H      -41.19080000     -33.44200000     -71.88680000
H      -40.44650000     -33.15040000     -70.35570000
S      -45.17190000     -31.04090000     -73.85910000
S      -42.18660000     -34.65350000     -69.91210000
C      -46.34470000     -31.56260000     -72.54970000
H      -45.70550000     -31.83810000     -71.69000000
H      -47.13350000     -30.84170000     -72.23680000
C      -43.24390000     -35.23850000     -71.29090000
H      -43.29570000     -36.37430000     -71.01300000
H      -42.65880000     -35.33630000     -72.21090000
C      -44.62390000     -34.51590000     -71.41560000
H      -44.57480000     -33.56190000     -70.82030000
H      -44.72950000     -34.27310000     -72.46710000
C      -47.16090000     -32.82000000     -73.15900000
H      -46.39100000     -33.42810000     -73.57620000
H      -47.82640000     -32.37910000     -73.90590000
C      -47.84140000     -33.80030000     -72.20420000
C      -49.21060000     -33.91160000     -72.19480000
C      -47.21960000     -34.83340000     -71.39190000
H      -49.84790000     -33.27310000     -72.77620000
C      -48.18900000     -35.60610000     -70.72690000
C      -45.81680000     -35.25590000     -71.06970000
C      -45.90930000     -36.38530000     -70.27650000
S      -49.86200000     -35.22430000     -71.23870000
S      -47.54130000     -36.92750000     -69.84710000
H      -45.08650000     -36.95920000     -69.90610000
