40
Properties=species:S:1:pos:R:3 #=T CELL(abcABC):=T 1.889726e+02=T 90.00000=T Traj:=T positionsangstrom=T Step:=T 0=T Bead:=T pbc="F F F"
C      -42.64530000     -31.73340000     -69.41400000
C      -42.33580000     -32.07220000     -70.70050000
C      -42.96290000     -31.38300000     -71.79100000
C      -43.83480000     -30.33560000     -71.52090000
C      -44.14670000     -30.04300000     -70.17610000
C      -43.52210000     -30.68950000     -69.11330000
H      -42.27700000     -32.36610000     -68.57900000
H      -42.88130000     -31.84680000     -72.78860000
H      -44.81550000     -29.17380000     -69.91090000
H      -43.84980000     -30.57870000     -68.04150000
C      -44.44140000     -29.58510000     -72.63420000
H      -43.66010000     -29.16010000     -73.26410000
H      -45.12480000     -28.76490000     -72.31270000
C      -41.41080000     -33.17620000     -71.00970000
H      -41.30200000     -33.37530000     -72.07140000
H      -40.29520000     -32.97770000     -70.73820000
S      -45.32000000     -30.67280000     -73.77690000
S      -41.90040000     -34.79680000     -70.23640000
C      -46.26670000     -31.92720000     -72.67190000
H      -45.62220000     -32.26930000     -71.90720000
H      -47.25360000     -31.50030000     -72.34950000
C      -43.27750000     -35.33110000     -71.44100000
H      -43.47080000     -36.28690000     -71.00530000
H      -42.78830000     -35.54760000     -72.39850000
C      -44.40800000     -34.36210000     -71.46670000
H      -44.19750000     -33.50500000     -70.83460000
H      -44.47610000     -34.09210000     -72.51850000
C      -46.65760000     -33.15000000     -73.57840000
H      -45.74360000     -33.65220000     -73.99180000
H      -47.20750000     -32.88830000     -74.42880000
C      -47.51390000     -34.08340000     -72.63440000
C      -48.85950000     -34.29110000     -72.86070000
C      -47.03260000     -34.71290000     -71.41040000
H      -49.48730000     -33.75390000     -73.52540000
C      -48.07040000     -35.39670000     -70.75440000
C      -45.67540000     -34.89960000     -70.81770000
C      -45.79580000     -35.63840000     -69.70710000
S      -49.59600000     -35.22210000     -71.51780000
S      -47.41940000     -36.26890000     -69.34290000
H      -44.90740000     -35.92430000     -69.13480000
