40
Properties=species:S:1:pos:R:3 #=T CELL(abcABC):=T 1.889726e+02=T 90.00000=T Traj:=T positionsangstrom=T Step:=T 0=T Bead:=T pbc="F F F"
C      -42.66110000     -31.75010000     -69.26860000
C      -42.33930000     -31.98020000     -70.60530000
C      -42.85300000     -31.19510000     -71.63990000
C      -43.89060000     -30.27410000     -71.41550000
C      -44.14540000     -30.03150000     -70.08480000
C      -43.58610000     -30.71870000     -69.01520000
H      -42.19470000     -32.24670000     -68.41640000
H      -42.41390000     -31.23190000     -72.64250000
H      -44.88200000     -29.16490000     -69.84730000
H      -43.95560000     -30.58760000     -68.01260000
C      -44.64860000     -29.62280000     -72.53960000
H      -43.93000000     -28.95230000     -73.08820000
H      -45.47370000     -29.09530000     -72.17460000
C      -41.30690000     -33.07720000     -70.89890000
H      -41.05240000     -32.99870000     -71.97330000
H      -40.34320000     -32.93810000     -70.33950000
S      -45.32270000     -30.78500000     -73.90630000
S      -41.71130000     -34.83190000     -70.36120000
C      -46.34350000     -31.81890000     -72.85170000
H      -45.69990000     -32.13770000     -72.00010000
H      -47.13620000     -31.25850000     -72.39520000
C      -43.17310000     -35.44940000     -71.42830000
H      -43.52840000     -36.24120000     -70.90320000
H      -42.94970000     -35.80190000     -72.45230000
C      -44.38120000     -34.46570000     -71.46910000
H      -44.05750000     -33.50460000     -71.01160000
H      -44.56030000     -34.12340000     -72.51750000
C      -46.85370000     -33.13510000     -73.61080000
H      -46.00520000     -33.56390000     -74.14250000
H      -47.52580000     -32.77420000     -74.44270000
C      -47.57110000     -34.11270000     -72.65140000
C      -48.92430000     -34.26200000     -72.76430000
C      -47.02710000     -34.83050000     -71.57610000
H      -49.53520000     -33.93600000     -73.53470000
C      -48.00760000     -35.35100000     -70.76320000
C      -45.69360000     -34.99160000     -70.93940000
C      -45.77170000     -35.66110000     -69.79560000
S      -49.61980000     -35.29920000     -71.53220000
S      -47.43560000     -36.11800000     -69.24470000
H      -44.95050000     -35.75710000     -69.06940000
