40
Properties=species:S:1:pos:R:3 #=T CELL(abcABC):=T 1.889726e+02=T 90.00000=T Traj:=T positionsangstrom=T Step:=T 0=T Bead:=T pbc="F F F"
C      -43.57850000     -32.22340000     -69.21940000
C      -42.75480000     -32.33010000     -70.33630000
C      -43.04390000     -31.55000000     -71.46260000
C      -44.00510000     -30.58130000     -71.35530000
C      -44.77350000     -30.39220000     -70.18840000
C      -44.46250000     -31.14260000     -69.06270000
H      -43.35840000     -32.78190000     -68.26380000
H      -42.54830000     -31.70050000     -72.46960000
H      -45.35480000     -29.53510000     -70.19270000
H      -45.05260000     -31.03240000     -68.14080000
C      -44.27030000     -29.66940000     -72.53510000
H      -43.28600000     -29.44780000     -73.00410000
H      -44.64380000     -28.68440000     -72.13480000
C      -41.65090000     -33.40880000     -70.40200000
H      -40.98360000     -33.18550000     -71.24680000
H      -40.99840000     -33.42630000     -69.53290000
S      -45.34100000     -30.39480000     -73.82890000
S      -42.29080000     -35.13930000     -70.68040000
C      -46.76830000     -31.12800000     -72.88130000
H      -46.53160000     -31.02240000     -71.78510000
H      -47.59510000     -30.48230000     -73.15590000
C      -42.96090000     -34.95530000     -72.37900000
H      -42.85550000     -35.89070000     -72.93290000
H      -42.31360000     -34.25150000     -72.97400000
C      -44.38680000     -34.43130000     -72.46320000
H      -44.43180000     -33.42460000     -72.02740000
H      -44.57080000     -34.27500000     -73.54850000
C      -47.08270000     -32.54310000     -73.14020000
H      -46.14900000     -32.94820000     -73.53050000
H      -48.01230000     -32.60260000     -73.78860000
C      -47.53540000     -33.39920000     -71.90810000
C      -48.74190000     -33.28000000     -71.28150000
C      -46.77140000     -34.60640000     -71.48400000
H      -49.34190000     -32.42310000     -71.40090000
C      -47.46620000     -35.42690000     -70.63770000
C      -45.47490000     -35.20040000     -71.79920000
C      -45.28760000     -36.36050000     -71.11910000
S      -49.01280000     -34.72000000     -70.24250000
S      -46.68420000     -36.88500000     -70.08950000
H      -44.46440000     -37.03510000     -71.26890000
