40
Properties=species:S:1:pos:R:3 #=T CELL(abcABC):=T 1.889726e+02=T 90.00000=T Traj:=T positionsangstrom=T Step:=T 0=T Bead:=T pbc="F F F"
C      -47.15120000     -34.78180000     -74.24430000
C      -45.73630000     -34.72950000     -74.43660000
C      -45.18660000     -33.43800000     -74.59000000
C      -45.95440000     -32.27680000     -74.34880000
C      -47.33500000     -32.35450000     -74.24520000
C      -47.89480000     -33.65410000     -74.22020000
H      -47.68640000     -35.73900000     -74.07960000
H      -44.10800000     -33.16030000     -74.71970000
H      -48.01010000     -31.52640000     -74.11890000
H      -49.00020000     -33.72690000     -74.10500000
C      -45.24020000     -30.96710000     -74.26190000
H      -45.23550000     -30.29710000     -75.21840000
H      -44.18940000     -31.19750000     -74.17580000
C      -44.89330000     -35.97600000     -74.35900000
H      -45.36260000     -36.75180000     -73.77680000
H      -44.57140000     -36.31460000     -75.37900000
S      -45.82470000     -29.76180000     -73.02420000
S      -43.22840000     -35.81280000     -73.62560000
C      -45.19050000     -30.44700000     -71.41000000
H      -44.14950000     -30.75420000     -71.51520000
H      -45.42820000     -29.70200000     -70.78740000
C      -43.46560000     -35.81330000     -71.79720000
H      -42.49700000     -35.96220000     -71.43870000
H      -43.96350000     -36.68960000     -71.57820000
C      -43.91510000     -34.47570000     -71.25890000
H      -43.10170000     -33.72890000     -71.37640000
H      -44.73000000     -34.06670000     -71.82990000
C      -46.06330000     -31.70150000     -70.93120000
H      -45.75190000     -32.49420000     -71.62790000
H      -47.05180000     -31.39660000     -70.99710000
C      -45.92780000     -32.23820000     -69.49350000
C      -46.50390000     -31.63640000     -68.43990000
C      -45.18260000     -33.43360000     -69.09650000
H      -47.31060000     -30.87920000     -68.46730000
C      -45.32880000     -33.77710000     -67.74830000
C      -44.39050000     -34.46000000     -69.77410000
C      -43.98450000     -35.50640000     -68.89450000
S      -46.21880000     -32.47120000     -66.88510000
S      -44.52620000     -35.18620000     -67.19410000
H      -43.42360000     -36.36410000     -69.13220000
