40
Properties=species:S:1:pos:R:3 #=T CELL(abcABC):=T 1.889726e+02=T 90.00000=T Traj:=T positionsangstrom=T Step:=T 0=T Bead:=T pbc="F F F"
C      -47.14770000     -34.84840000     -74.20760000
C      -45.76330000     -34.77720000     -74.32020000
C      -45.17830000     -33.44180000     -74.30700000
C      -45.93470000     -32.33490000     -74.11890000
C      -47.31730000     -32.44720000     -73.96610000
C      -47.88310000     -33.64020000     -74.07710000
H      -47.73020000     -35.70250000     -74.07340000
H      -44.12880000     -33.26310000     -74.39880000
H      -47.85170000     -31.52850000     -73.73110000
H      -48.96540000     -33.62300000     -73.91620000
C      -45.38960000     -30.95890000     -74.23530000
H      -45.79670000     -30.43010000     -75.08080000
H      -44.31050000     -30.90580000     -74.26910000
C      -44.89250000     -36.01880000     -74.42700000
H      -45.29900000     -36.93040000     -73.97230000
H      -44.82200000     -36.35080000     -75.47370000
S      -45.92800000     -29.82510000     -72.85110000
S      -43.17660000     -35.78270000     -73.75110000
C      -45.28040000     -30.74060000     -71.40950000
H      -44.20940000     -31.08300000     -71.56660000
H      -44.99850000     -29.89470000     -70.68950000
C      -43.33950000     -35.61940000     -71.94370000
H      -42.22940000     -35.49430000     -71.57560000
H      -43.81070000     -36.49270000     -71.38720000
C      -44.19870000     -34.46170000     -71.39370000
H      -43.95230000     -33.50320000     -71.90310000
H      -45.20780000     -34.76320000     -71.77550000
C      -46.24160000     -31.82450000     -70.92500000
H      -46.27210000     -32.68140000     -71.62260000
H      -47.29940000     -31.53750000     -71.06840000
C      -45.88470000     -32.19860000     -69.52430000
C      -46.47270000     -31.61140000     -68.44510000
C      -45.07850000     -33.37290000     -69.16410000
H      -47.31530000     -30.99330000     -68.34180000
C      -45.13670000     -33.63950000     -67.79470000
C      -44.26460000     -34.33950000     -69.87470000
C      -43.89540000     -35.41580000     -69.00950000
S      -46.17130000     -32.43730000     -66.92650000
S      -44.47810000     -35.15540000     -67.36130000
H      -43.30990000     -36.28200000     -69.19730000
