40
Properties=species:S:1:pos:R:3 #=T CELL(abcABC):=T 1.889726e+02=T 90.00000=T Traj:=T positionsangstrom=T Step:=T 0=T Bead:=T pbc="F F F"
C      -43.44680000     -32.37820000     -69.12350000
C      -42.66300000     -32.33040000     -70.33710000
C      -42.92200000     -31.29780000     -71.24330000
C      -43.89700000     -30.33530000     -71.06130000
C      -44.67100000     -30.39290000     -69.88950000
C      -44.48480000     -31.42020000     -68.93750000
H      -43.32290000     -33.13130000     -68.40470000
H      -42.42630000     -31.28590000     -72.14510000
H      -45.49760000     -29.61500000     -69.80650000
H      -44.87540000     -31.26960000     -67.89770000
C      -44.31440000     -29.56070000     -72.23270000
H      -43.47220000     -29.04450000     -72.73090000
H      -45.07520000     -28.77830000     -72.02180000
C      -41.63130000     -33.38020000     -70.53710000
H      -40.91640000     -33.13060000     -71.35880000
H      -41.10930000     -33.52780000     -69.59250000
S      -45.12870000     -30.68050000     -73.40360000
S      -42.29440000     -35.00110000     -70.95120000
C      -46.67610000     -31.09250000     -72.51920000
H      -46.33270000     -31.20300000     -71.47520000
H      -47.39790000     -30.23300000     -72.52260000
C      -43.03000000     -34.82740000     -72.68080000
H      -42.92350000     -35.84580000     -73.09720000
H      -42.44310000     -34.10330000     -73.23670000
C      -44.50190000     -34.33130000     -72.76920000
H      -44.57600000     -33.34090000     -72.18610000
H      -44.83220000     -34.20840000     -73.78040000
C      -47.42000000     -32.30830000     -73.06240000
H      -46.90230000     -32.77860000     -73.94090000
H      -48.37470000     -31.99910000     -73.51600000
C      -47.73350000     -33.44270000     -72.02700000
C      -48.92140000     -33.40980000     -71.25220000
C      -46.95420000     -34.66380000     -71.80140000
H      -49.77010000     -32.68070000     -71.34490000
C      -47.53180000     -35.46830000     -70.78390000
C      -45.59720000     -35.17220000     -72.11650000
C      -45.29680000     -36.27980000     -71.39220000
S      -49.01580000     -34.80250000     -70.20800000
S      -46.57050000     -36.89290000     -70.26560000
H      -44.33480000     -36.79930000     -71.42220000
