40
Properties=species:S:1:pos:R:3 #=T CELL(abcABC):=T 1.889726e+02=T 90.00000=T Traj:=T positionsangstrom=T Step:=T 0=T Bead:=T pbc="F F F"
C      -44.64090000     -30.90360000     -73.37550000
C      -45.97960000     -30.71430000     -73.05670000
C      -46.97280000     -31.53620000     -73.59030000
C      -46.59520000     -32.68660000     -74.28730000
C      -45.23140000     -32.93510000     -74.65300000
C      -44.28260000     -32.00340000     -74.15080000
H      -43.87220000     -30.23520000     -72.99610000
H      -47.95450000     -31.22640000     -73.34800000
H      -44.92350000     -33.82740000     -75.24090000
H      -43.27560000     -32.22890000     -74.30850000
C      -47.57480000     -33.67790000     -74.71760000
H      -47.33140000     -34.35720000     -75.57100000
H      -48.48670000     -33.28250000     -74.93440000
C      -46.33540000     -29.65430000     -72.05730000
H      -46.26830000     -28.70000000     -72.55280000
H      -47.35480000     -29.83160000     -71.85310000
S      -47.95920000     -34.83270000     -73.25640000
S      -45.50480000     -29.79700000     -70.42640000
C      -46.27300000     -35.34770000     -72.61570000
H      -45.87160000     -36.13630000     -73.23660000
H      -45.57750000     -34.43510000     -72.64750000
C      -46.56380000     -31.22710000     -69.59300000
H      -47.57500000     -30.90150000     -70.00480000
H      -46.37610000     -31.17470000     -68.50160000
C      -46.18440000     -32.56430000     -70.13230000
H      -47.00390000     -33.26750000     -69.90820000
H      -46.12830000     -32.48820000     -71.25550000
C      -46.52710000     -35.92610000     -71.23630000
H      -46.87810000     -36.93970000     -71.14280000
H      -47.41720000     -35.34050000     -70.79510000
C      -45.28120000     -35.87590000     -70.40110000
C      -44.47670000     -36.94650000     -70.27550000
C      -44.66210000     -34.68430000     -69.86330000
H      -44.65150000     -37.95890000     -70.59980000
C      -43.44480000     -35.01280000     -69.26280000
C      -44.88680000     -33.19240000     -69.62510000
C      -43.94340000     -32.62810000     -68.85580000
S      -42.97900000     -36.67410000     -69.53340000
S      -42.68090000     -33.69760000     -68.39980000
H      -43.97230000     -31.57580000     -68.65890000
