40
Properties=species:S:1:pos:R:3 #=T CELL(abcABC):=T 1.889726e+02=T 90.00000=T Traj:=T positionsangstrom=T Step:=T 0=T Bead:=T pbc="F F F"
C      -41.49240000     -31.58020000     -69.71250000
C      -41.86340000     -31.94150000     -71.06770000
C      -42.90510000     -31.21890000     -71.74600000
C      -43.80680000     -30.37570000     -71.05120000
C      -43.49190000     -30.12830000     -69.67380000
C      -42.38890000     -30.67640000     -69.01980000
H      -40.73300000     -32.11140000     -69.20880000
H      -43.13580000     -31.63870000     -72.70610000
H      -44.19430000     -29.43720000     -69.07200000
H      -42.25510000     -30.56690000     -67.93120000
C      -44.85160000     -29.49090000     -71.68980000
H      -44.32450000     -28.81820000     -72.36040000
H      -45.30850000     -28.84860000     -70.86800000
C      -41.26010000     -33.12330000     -71.79530000
H      -41.31150000     -33.24540000     -72.91400000
H      -40.20840000     -33.41360000     -71.58820000
S      -46.02150000     -30.33170000     -72.85850000
S      -42.41950000     -34.72000000     -71.36330000
C      -46.86940000     -31.50710000     -71.70470000
H      -46.13800000     -32.08190000     -71.18240000
H      -47.55060000     -30.99250000     -70.97360000
C      -43.42730000     -34.86480000     -72.92490000
H      -43.42470000     -35.93430000     -73.22780000
H      -42.91260000     -34.39260000     -73.79830000
C      -44.81850000     -34.30880000     -72.77070000
H      -44.87560000     -33.20840000     -72.51000000
H      -45.29870000     -34.35710000     -73.69440000
C      -47.80360000     -32.38830000     -72.48860000
H      -47.21160000     -32.73360000     -73.44830000
H      -48.70920000     -31.88430000     -72.84710000
C      -48.07850000     -33.68340000     -71.69930000
C      -49.34910000     -34.04210000     -71.30230000
C      -47.12000000     -34.78750000     -71.51590000
H      -50.24850000     -33.49190000     -71.44390000
C      -47.66170000     -35.82900000     -70.77300000
C      -45.68530000     -35.07130000     -71.69720000
C      -45.30130000     -36.16650000     -71.02180000
S      -49.39450000     -35.61780000     -70.48380000
S      -46.56570000     -37.01920000     -70.14940000
H      -44.38660000     -36.72600000     -71.19900000
