40
Properties=species:S:1:pos:R:3 #=T CELL(abcABC):=T 1.889726e+02=T 90.00000=T Traj:=T positionsangstrom=T Step:=T 0=T Bead:=T pbc="F F F"
C      -46.73550000     -31.03130000     -71.73110000
C      -45.63500000     -30.93810000     -72.60590000
C      -45.45500000     -32.05340000     -73.43670000
C      -46.37660000     -33.17860000     -73.40480000
C      -47.51940000     -33.15910000     -72.64730000
C      -47.66090000     -32.09730000     -71.78650000
H      -46.94360000     -30.26100000     -71.02600000
H      -44.55500000     -32.08580000     -73.99600000
H      -48.13130000     -34.02290000     -72.62670000
H      -48.54490000     -32.03810000     -71.13230000
C      -46.15980000     -34.31540000     -74.38820000
H      -45.56410000     -34.11380000     -75.27670000
H      -47.15840000     -34.51970000     -74.79660000
C      -44.60470000     -29.85630000     -72.52650000
H      -44.67760000     -29.20790000     -73.40380000
H      -44.83060000     -29.28200000     -71.62070000
S      -45.62520000     -35.88930000     -73.55420000
S      -42.87290000     -30.61130000     -72.51040000
C      -43.88340000     -35.37560000     -73.00430000
H      -43.08040000     -35.85030000     -73.61920000
H      -43.90590000     -34.29150000     -73.17670000
C      -42.73370000     -31.19670000     -70.72970000
H      -43.40090000     -30.53950000     -70.10740000
H      -41.68630000     -30.96200000     -70.39650000
C      -43.03000000     -32.71900000     -70.53990000
H      -43.20360000     -33.07470000     -71.59390000
H      -42.15810000     -33.15330000     -70.06260000
C      -43.67520000     -35.75250000     -71.50780000
H      -42.78130000     -35.35570000     -71.08330000
H      -43.47510000     -36.84210000     -71.46770000
C      -44.81000000     -35.49860000     -70.61200000
C      -45.74050000     -36.44580000     -70.20440000
C      -45.00020000     -34.26780000     -69.91950000
H      -45.88590000     -37.45110000     -70.69540000
C      -46.19520000     -34.26230000     -69.15020000
C      -44.25050000     -33.02240000     -69.74500000
C      -44.93960000     -32.16790000     -68.84170000
S      -47.03860000     -35.70910000     -69.33020000
S      -46.45440000     -32.84900000     -68.17530000
H      -44.67760000     -31.16660000     -68.50790000
