40
Properties=species:S:1:pos:R:3 #=T CELL(abcABC):=T 1.889726e+02=T 90.00000=T Traj:=T positionsangstrom=T Step:=T 0=T Bead:=T pbc="F F F"
C      -43.00130000     -32.19420000     -69.23550000
C      -42.64500000     -32.44990000     -70.55350000
C      -42.90690000     -31.40380000     -71.49290000
C      -43.67960000     -30.32590000     -71.14570000
C      -44.10220000     -30.17370000     -69.81760000
C      -43.69800000     -31.07070000     -68.90090000
H      -42.70020000     -32.98420000     -68.56070000
H      -42.47790000     -31.51370000     -72.51150000
H      -44.75320000     -29.35270000     -69.46150000
H      -43.90480000     -30.97170000     -67.77600000
C      -44.20470000     -29.37700000     -72.21340000
H      -43.47450000     -29.10680000     -72.88860000
H      -44.56230000     -28.40690000     -71.79640000
C      -41.64720000     -33.54730000     -70.89700000
H      -40.95270000     -33.27910000     -71.74720000
H      -40.91380000     -33.57080000     -70.03130000
S      -45.58600000     -30.21560000     -73.16640000
S      -42.36450000     -35.22720000     -71.06270000
C      -46.60140000     -31.23290000     -71.97790000
H      -45.92770000     -31.72430000     -71.39200000
H      -47.22090000     -30.55970000     -71.38700000
C      -43.10160000     -35.05310000     -72.67820000
H      -43.19570000     -36.01080000     -73.21190000
H      -42.41110000     -34.42780000     -73.27130000
C      -44.50940000     -34.34910000     -72.66440000
H      -44.33160000     -33.34530000     -72.29440000
H      -44.79850000     -34.20190000     -73.71910000
C      -47.41060000     -32.34960000     -72.80370000
H      -46.67490000     -32.68920000     -73.55300000
H      -48.32850000     -31.90180000     -73.35760000
C      -47.77280000     -33.48320000     -71.90700000
C      -49.01160000     -33.51030000     -71.30570000
C      -46.94160000     -34.64510000     -71.57980000
H      -49.84880000     -32.86930000     -71.37310000
C      -47.66750000     -35.58240000     -70.81390000
C      -45.57510000     -35.06050000     -71.88620000
C      -45.35100000     -36.28210000     -71.39200000
S      -49.26660000     -35.03190000     -70.45800000
S      -46.60460000     -36.87590000     -70.34970000
H      -44.49760000     -36.91430000     -71.49020000
