40
Properties=species:S:1:pos:R:3 #=T CELL(abcABC):=T 1.889726e+02=T 90.00000=T Traj:=T positionsangstrom=T Step:=T 0=T Bead:=T pbc="F F F"
C      -42.09480000     -31.84860000     -69.53930000
C      -42.32490000     -31.99380000     -70.92830000
C      -43.24100000     -31.17810000     -71.60530000
C      -43.98250000     -30.18360000     -70.91200000
C      -43.76470000     -30.02130000     -69.57840000
C      -42.81160000     -30.81070000     -68.91360000
H      -41.36160000     -32.49570000     -69.06160000
H      -43.26660000     -31.30010000     -72.65660000
H      -44.38150000     -29.32620000     -69.05160000
H      -42.80120000     -30.58030000     -67.85140000
C      -44.84950000     -29.17900000     -71.62200000
H      -44.18130000     -28.38070000     -72.06310000
H      -45.50030000     -28.67600000     -70.89180000
C      -41.62120000     -33.09450000     -71.78460000
H      -41.73880000     -32.74760000     -72.83050000
H      -40.55540000     -32.97530000     -71.47660000
S      -45.80630000     -29.94830000     -72.93770000
S      -42.07040000     -34.75280000     -71.44020000
C      -46.57440000     -31.34790000     -71.88850000
H      -45.74170000     -31.66930000     -71.25860000
H      -47.38610000     -31.06060000     -71.22150000
C      -43.24190000     -35.27990000     -72.82410000
H      -43.24780000     -36.43360000     -72.86340000
H      -42.80570000     -34.88530000     -73.73340000
C      -44.70550000     -34.74930000     -72.64680000
H      -44.48720000     -33.71580000     -72.49080000
H      -45.12420000     -34.80000000     -73.64480000
C      -47.16250000     -32.53800000     -72.63640000
H      -46.38420000     -32.85600000     -73.40740000
H      -48.11280000     -32.16850000     -73.20370000
C      -47.67310000     -33.69570000     -71.77550000
C      -48.94470000     -33.73500000     -71.21480000
C      -46.97200000     -34.92470000     -71.44510000
H      -49.73920000     -33.03420000     -71.47250000
C      -47.77490000     -35.81140000     -70.78160000
C      -45.66220000     -35.41470000     -71.65580000
C      -45.42670000     -36.58770000     -71.04900000
S      -49.37230000     -35.28130000     -70.47820000
S      -46.93630000     -37.24230000     -70.33950000
H      -44.49760000     -37.11890000     -71.12340000
