40
Properties=species:S:1:pos:R:3 #=T CELL(abcABC):=T 1.889726e+02=T 90.00000=T Traj:=T positionsangstrom=T Step:=T 0=T Bead:=T pbc="F F F"
C      -43.03980000     -32.29950000     -69.07380000
C      -42.46100000     -32.42850000     -70.37740000
C      -42.85950000     -31.51010000     -71.37740000
C      -43.80740000     -30.47340000     -71.09070000
C      -44.41760000     -30.46970000     -69.86310000
C      -44.01780000     -31.35430000     -68.79390000
H      -42.67370000     -32.98370000     -68.23950000
H      -42.47640000     -31.71740000     -72.41490000
H      -45.01680000     -29.67150000     -69.50870000
H      -44.52070000     -31.27320000     -67.83940000
C      -44.20000000     -29.49370000     -72.16490000
H      -43.32450000     -29.21000000     -72.76720000
H      -44.61910000     -28.57740000     -71.65440000
C      -41.51620000     -33.49040000     -70.71510000
H      -40.92920000     -33.19810000     -71.55060000
H      -40.95430000     -33.80230000     -69.87340000
S      -45.50850000     -30.14390000     -73.44680000
S      -42.44690000     -35.02770000     -71.06270000
C      -46.38690000     -31.28920000     -72.16410000
H      -45.63590000     -31.73960000     -71.46210000
H      -46.99150000     -30.59700000     -71.45370000
C      -43.11670000     -34.85530000     -72.77680000
H      -42.93320000     -35.72940000     -73.32040000
H      -42.52080000     -34.01850000     -73.28050000
C      -44.58560000     -34.37220000     -72.82310000
H      -44.66770000     -33.35670000     -72.58820000
H      -45.00760000     -34.39290000     -73.90380000
C      -47.35270000     -32.29850000     -72.85650000
H      -46.95790000     -32.66300000     -73.76300000
H      -48.27930000     -31.81810000     -73.08200000
C      -47.76170000     -33.45750000     -71.93950000
C      -49.03610000     -33.58930000     -71.38460000
C      -46.89710000     -34.59400000     -71.56180000
H      -49.81970000     -32.91780000     -71.42500000
C      -47.57160000     -35.47840000     -70.78940000
C      -45.57510000     -35.09060000     -71.87540000
C      -45.33070000     -36.28570000     -71.32290000
S      -49.15000000     -34.97050000     -70.32830000
S      -46.64860000     -36.90460000     -70.32760000
H      -44.53320000     -37.02140000     -71.36070000
