40
Properties=species:S:1:pos:R:3 #=T CELL(abcABC):=T 1.889726e+02=T 90.00000=T Traj:=T positionsangstrom=T Step:=T 0=T Bead:=T pbc="F F F"
C      -46.72410000     -31.10210000     -71.82420000
C      -45.61560000     -31.04210000     -72.71110000
C      -45.54070000     -32.06950000     -73.67460000
C      -46.48540000     -33.15510000     -73.67130000
C      -47.58030000     -33.13750000     -72.75740000
C      -47.68050000     -32.13480000     -71.86600000
H      -46.71960000     -30.33930000     -70.97630000
H      -44.75290000     -32.09870000     -74.45300000
H      -48.38040000     -33.87150000     -72.79630000
H      -48.36960000     -32.15570000     -71.09870000
C      -46.24590000     -34.34250000     -74.51680000
H      -45.35030000     -34.17960000     -75.17050000
H      -47.03760000     -34.65480000     -75.16660000
C      -44.59320000     -29.91090000     -72.64770000
H      -44.54960000     -29.22360000     -73.52370000
H      -44.85880000     -29.32630000     -71.78060000
S      -45.75540000     -35.72210000     -73.41560000
S      -42.87600000     -30.52480000     -72.36600000
C      -44.05170000     -35.42740000     -72.98020000
H      -43.23310000     -35.81520000     -73.60190000
H      -43.97520000     -34.32500000     -73.12040000
C      -42.68160000     -31.03620000     -70.63040000
H      -43.32550000     -30.39900000     -70.06050000
H      -41.72090000     -30.71630000     -70.28190000
C      -43.02350000     -32.50460000     -70.39420000
H      -42.83980000     -33.21150000     -71.27700000
H      -42.17730000     -32.93040000     -69.87610000
C      -43.63090000     -35.76880000     -71.50150000
H      -42.66060000     -35.28620000     -71.17030000
H      -43.35890000     -36.85620000     -71.48930000
C      -44.70180000     -35.49830000     -70.57010000
C      -45.61820000     -36.48220000     -70.29850000
C      -44.95160000     -34.28840000     -69.90960000
H      -45.53520000     -37.54480000     -70.56510000
C      -46.06830000     -34.35130000     -69.09970000
C      -44.33760000     -32.96260000     -69.81350000
C      -45.07240000     -32.07400000     -68.99410000
S      -46.78490000     -35.93040000     -69.13670000
S      -46.52950000     -32.90580000     -68.23330000
H      -44.89620000     -31.10310000     -68.63130000
