40
Properties=species:S:1:pos:R:3 #=T CELL(abcABC):=T 1.889726e+02=T 90.00000=T Traj:=T positionsangstrom=T Step:=T 0=T Bead:=T pbc="F F F"
C      -47.23670000     -35.35800000     -74.01740000
C      -46.04380000     -34.76970000     -74.31590000
C      -45.95690000     -33.36200000     -74.39000000
C      -47.07160000     -32.49730000     -74.10030000
C      -48.27090000     -33.18850000     -73.84120000
C      -48.37320000     -34.55240000     -73.93660000
H      -47.35350000     -36.42430000     -73.81030000
H      -45.01570000     -33.15370000     -74.75950000
H      -49.14550000     -32.65530000     -73.49570000
H      -49.27960000     -35.06900000     -73.55370000
C      -46.79000000     -31.00730000     -74.11720000
H      -47.43810000     -30.47630000     -74.85010000
H      -45.79410000     -30.82390000     -74.42990000
C      -44.80660000     -35.64300000     -74.41810000
H      -44.86330000     -36.50430000     -73.72480000
H      -44.81930000     -36.20310000     -75.37340000
S      -46.94560000     -30.15740000     -72.39870000
S      -43.17140000     -34.78080000     -74.16840000
C      -45.97190000     -31.10520000     -71.04430000
H      -44.98550000     -31.38400000     -71.35340000
H      -45.87420000     -30.38240000     -70.21990000
C      -42.95470000     -34.97710000     -72.33000000
H      -42.08130000     -34.43880000     -72.00870000
H      -42.70920000     -35.98590000     -72.00250000
C      -44.20670000     -34.53200000     -71.55730000
H      -44.56560000     -33.57560000     -72.01310000
H      -45.16190000     -35.13480000     -71.60380000
C      -46.70210000     -32.39780000     -70.59270000
H      -46.61110000     -33.27280000     -71.32920000
H      -47.82760000     -32.33020000     -70.39760000
C      -46.05380000     -32.76770000     -69.29510000
C      -46.44320000     -32.19930000     -68.14480000
C      -44.85790000     -33.59780000     -69.15650000
H      -47.23520000     -31.51720000     -67.90150000
C      -44.35030000     -33.67950000     -67.86040000
C      -43.92950000     -34.27200000     -70.05840000
C      -42.86210000     -34.77870000     -69.39810000
S      -45.35630000     -32.65250000     -66.87060000
S      -42.76690000     -34.38100000     -67.70640000
H      -42.21920000     -35.54340000     -69.91460000
