40
Properties=species:S:1:pos:R:3 #=T CELL(abcABC):=T 1.889726e+02=T 90.00000=T Traj:=T positionsangstrom=T Step:=T 0=T Bead:=T pbc="F F F"
C      -48.21510000     -34.30340000     -68.39150000
C      -47.80990000     -33.03040000     -68.82380000
C      -46.52860000     -32.57500000     -68.63790000
C      -45.62570000     -33.34580000     -67.91670000
C      -46.05990000     -34.53520000     -67.31990000
C      -47.37400000     -34.98280000     -67.52570000
H      -49.28780000     -34.65790000     -68.58530000
H      -46.23620000     -31.57150000     -69.09010000
H      -45.43700000     -35.06090000     -66.69490000
H      -47.59330000     -35.98320000     -67.23420000
C      -44.22780000     -32.84350000     -67.55260000
H      -43.71790000     -33.48440000     -66.79150000
H      -44.43680000     -31.81440000     -67.30830000
C      -48.84950000     -32.13800000     -69.48830000
H      -49.72260000     -32.19110000     -68.84380000
H      -48.45790000     -31.15400000     -69.41540000
S      -42.93640000     -32.52800000     -68.83760000
S      -49.20910000     -32.60440000     -71.32910000
C      -42.88570000     -34.23810000     -69.58970000
H      -41.91130000     -34.42210000     -69.84770000
H      -42.97560000     -35.05330000     -68.88050000
C      -47.55670000     -32.37150000     -72.23670000
H      -46.86080000     -31.61020000     -71.88250000
H      -47.92090000     -31.97380000     -73.20910000
C      -46.86210000     -33.73600000     -72.50770000
H      -46.54450000     -34.12230000     -71.56540000
H      -47.62870000     -34.41820000     -72.72870000
C      -43.81800000     -34.59890000     -70.83520000
H      -44.82450000     -34.23750000     -70.55960000
H      -43.75460000     -35.74670000     -70.86830000
C      -43.42670000     -34.08600000     -72.20500000
C      -42.10110000     -34.03990000     -72.58840000
C      -44.30110000     -33.79370000     -73.31840000
H      -41.29450000     -34.14650000     -71.95600000
C      -43.67100000     -33.50300000     -74.46180000
C      -45.77050000     -33.63530000     -73.55540000
C      -46.13680000     -33.30260000     -74.86420000
S      -41.92430000     -33.64530000     -74.28440000
S      -44.70790000     -33.05720000     -75.78580000
H      -47.07370000     -33.12810000     -75.33150000
