40
Properties=species:S:1:pos:R:3 #=T CELL(abcABC):=T 1.889726e+02=T 90.00000=T Traj:=T positionsangstrom=T Step:=T 0=T Bead:=T pbc="F F F"
C      -48.14360000     -34.23410000     -68.36660000
C      -47.72820000     -32.93960000     -68.81300000
C      -46.40370000     -32.51820000     -68.66260000
C      -45.43750000     -33.37960000     -68.15060000
C      -45.84180000     -34.67620000     -67.75610000
C      -47.19450000     -35.07030000     -67.78620000
H      -49.18890000     -34.56010000     -68.41300000
H      -46.21320000     -31.44810000     -68.82030000
H      -45.14690000     -35.44280000     -67.49540000
H      -47.47720000     -36.02690000     -67.28730000
C      -44.14650000     -32.87670000     -67.66850000
H      -43.90430000     -33.40550000     -66.75880000
H      -44.23190000     -31.87020000     -67.21970000
C      -48.76170000     -32.03320000     -69.39160000
H      -49.58940000     -32.06190000     -68.67990000
H      -48.37250000     -30.96070000     -69.43260000
S      -42.88040000     -32.59910000     -68.91570000
S      -49.35720000     -32.51260000     -71.10300000
C      -42.76690000     -34.20490000     -69.86670000
H      -41.75720000     -34.16270000     -70.27820000
H      -42.84960000     -35.05970000     -69.07060000
C      -47.65060000     -32.41540000     -71.98360000
H      -46.94980000     -31.95030000     -71.22040000
H      -47.80160000     -31.78380000     -72.78710000
C      -46.93040000     -33.66870000     -72.35610000
H      -46.47510000     -33.94810000     -71.40410000
H      -47.49340000     -34.56140000     -72.71780000
C      -43.83760000     -34.39820000     -70.84700000
H      -44.65570000     -33.70190000     -70.54050000
H      -44.27320000     -35.35370000     -70.97020000
C      -43.42510000     -33.93540000     -72.18810000
C      -42.12640000     -33.98390000     -72.65130000
C      -44.36130000     -33.63710000     -73.21840000
H      -41.25170000     -34.23130000     -72.11630000
C      -43.70650000     -33.56780000     -74.44920000
C      -45.80080000     -33.55910000     -73.36650000
C      -46.18980000     -33.39240000     -74.68530000
S      -42.01290000     -33.61870000     -74.34620000
S      -44.84010000     -33.34670000     -75.74440000
H      -47.23700000     -33.31150000     -75.00170000
