40
Properties=species:S:1:pos:R:3 #=T CELL(abcABC):=T 1.889726e+02=T 90.00000=T Traj:=T positionsangstrom=T Step:=T 0=T Bead:=T pbc="F F F"
C      -48.52950000     -34.41250000     -68.87060000
C      -48.34200000     -33.23820000     -69.55600000
C      -47.15690000     -32.48990000     -69.34860000
C      -46.26650000     -32.86240000     -68.34450000
C      -46.50290000     -34.00290000     -67.59680000
C      -47.68730000     -34.79050000     -67.82590000
H      -49.38380000     -35.13540000     -69.05010000
H      -46.98950000     -31.57210000     -69.88220000
H      -45.77090000     -34.31340000     -66.84040000
H      -47.85810000     -35.68710000     -67.29080000
C      -44.97710000     -32.11460000     -68.14990000
H      -44.56610000     -32.20130000     -67.16500000
H      -45.12000000     -30.99960000     -68.17480000
C      -49.29210000     -32.73520000     -70.57860000
H      -50.32830000     -32.71720000     -70.15280000
H      -48.90930000     -31.75310000     -70.92920000
S      -43.76660000     -32.62580000     -69.34540000
S      -49.36420000     -33.81660000     -72.20720000
C      -43.70160000     -34.52970000     -69.33970000
H      -42.57620000     -34.81310000     -69.18940000
H      -44.31710000     -34.95080000     -68.50670000
C      -47.82820000     -33.33560000     -73.11600000
H      -47.96450000     -32.27210000     -73.40500000
H      -47.83380000     -34.00080000     -73.93600000
C      -46.45610000     -33.62100000     -72.40160000
H      -46.27580000     -33.20850000     -71.41560000
H      -46.51790000     -34.75240000     -72.36500000
C      -44.03230000     -35.19000000     -70.72530000
H      -45.10860000     -35.11130000     -70.81030000
H      -43.62330000     -36.17780000     -70.58310000
C      -43.22750000     -34.51720000     -71.82400000
C      -41.87270000     -34.64780000     -72.01560000
C      -43.84460000     -33.60810000     -72.72690000
H      -41.19510000     -35.29440000     -71.48210000
C      -42.87670000     -33.00770000     -73.55630000
C      -45.15730000     -33.20730000     -73.03740000
C      -45.17810000     -32.21910000     -74.02640000
S      -41.27470000     -33.57170000     -73.35350000
S      -43.58450000     -31.95940000     -74.72200000
H      -46.03320000     -31.71210000     -74.42900000
