40
Properties=species:S:1:pos:R:3 #=T CELL(abcABC):=T 1.889726e+02=T 90.00000=T Traj:=T positionsangstrom=T Step:=T 0=T Bead:=T pbc="F F F"
C      -48.27380000     -34.34570000     -69.09120000
C      -48.23900000     -33.05700000     -69.57610000
C      -47.19420000     -32.21380000     -69.09500000
C      -46.13880000     -32.84410000     -68.28700000
C      -46.41650000     -34.05810000     -67.67000000
C      -47.51500000     -34.80240000     -68.02580000
H      -49.08450000     -34.98760000     -69.42870000
H      -47.05570000     -31.20800000     -69.48300000
H      -45.70650000     -34.31870000     -66.88810000
H      -47.83270000     -35.69440000     -67.50980000
C      -44.80540000     -32.23550000     -68.01530000
H      -44.38020000     -32.55080000     -67.03350000
H      -44.88450000     -31.11120000     -68.05570000
C      -49.23290000     -32.57580000     -70.59990000
H      -50.21890000     -32.62330000     -70.17330000
H      -49.16000000     -31.54890000     -70.90720000
S      -43.66910000     -32.77530000     -69.42090000
S      -49.28040000     -33.69990000     -72.10970000
C      -43.51040000     -34.60330000     -69.32820000
H      -42.46230000     -34.85030000     -69.19620000
H      -43.98360000     -34.83680000     -68.43250000
C      -47.73260000     -33.07750000     -72.98920000
H      -47.78120000     -32.02480000     -72.79810000
H      -47.80780000     -33.18640000     -74.09280000
C      -46.48570000     -33.72040000     -72.42240000
H      -46.41760000     -33.40990000     -71.37700000
H      -46.54880000     -34.79630000     -72.36660000
C      -44.03320000     -35.28760000     -70.56520000
H      -45.10300000     -35.35810000     -70.66260000
H      -43.77060000     -36.29370000     -70.64730000
C      -43.37490000     -34.54390000     -71.76440000
C      -42.04970000     -34.66590000     -72.01860000
C      -43.99690000     -33.67230000     -72.82080000
H      -41.28840000     -35.30760000     -71.52540000
C      -43.00830000     -33.08780000     -73.61280000
C      -45.29460000     -33.25630000     -73.15610000
C      -45.38960000     -32.34600000     -74.21590000
S      -41.41320000     -33.64420000     -73.25600000
S      -43.73700000     -31.92680000     -74.77190000
H      -46.23200000     -31.87650000     -74.69550000
