40
Properties=species:S:1:pos:R:3 #=T CELL(abcABC):=T 1.889726e+02=T 90.00000=T Traj:=T positionsangstrom=T Step:=T 0=T Bead:=T pbc="F F F"
C      -49.29470000     -34.17560000     -68.48260000
C      -48.81880000     -33.36400000     -69.48670000
C      -47.57440000     -32.76640000     -69.28820000
C      -46.82910000     -33.07140000     -68.16190000
C      -47.28560000     -33.97320000     -67.16280000
C      -48.59500000     -34.46210000     -67.28900000
H      -50.25600000     -34.70590000     -68.60150000
H      -47.18150000     -32.05990000     -70.01060000
H      -46.64210000     -34.29050000     -66.31530000
H      -49.04190000     -35.13550000     -66.52990000
C      -45.44070000     -32.40980000     -68.06770000
H      -44.85860000     -32.82250000     -67.27210000
H      -45.59940000     -31.35420000     -67.71580000
C      -49.57890000     -33.07430000     -70.78660000
H      -50.64730000     -33.34700000     -70.64690000
H      -49.50400000     -32.06240000     -71.05740000
S      -44.41030000     -32.45460000     -69.60460000
S      -48.89870000     -34.04540000     -72.25570000
C      -43.75810000     -34.20270000     -69.42520000
H      -42.72370000     -34.13680000     -69.04470000
H      -44.33290000     -34.68340000     -68.67770000
C      -47.53090000     -33.25410000     -73.17770000
H      -47.57620000     -32.09920000     -73.32810000
H      -47.53140000     -33.69060000     -74.17250000
C      -46.16150000     -33.70530000     -72.49410000
H      -46.24750000     -33.41670000     -71.40740000
H      -46.14050000     -34.85060000     -72.49950000
C      -43.65250000     -35.03270000     -70.64450000
H      -44.60200000     -35.34700000     -71.10680000
H      -43.11370000     -35.97900000     -70.44040000
C      -42.86170000     -34.35950000     -71.74680000
C      -41.51110000     -34.52750000     -71.90560000
C      -43.45770000     -33.59350000     -72.81780000
H      -40.91460000     -35.28710000     -71.31950000
C      -42.52500000     -33.04340000     -73.64570000
C      -44.87270000     -33.23390000     -73.20550000
C      -44.81550000     -32.36810000     -74.31260000
S      -40.85750000     -33.58170000     -73.32700000
S      -43.14100000     -31.84180000     -74.81450000
H      -45.69930000     -31.95140000     -74.76320000
