40
Properties=species:S:1:pos:R:3 #=T CELL(abcABC):=T 1.889726e+02=T 90.00000=T Traj:=T positionsangstrom=T Step:=T 0=T Bead:=T pbc="F F F"
C      -48.41810000     -34.24220000     -68.53740000
C      -48.12480000     -33.08060000     -69.30660000
C      -46.83150000     -32.62440000     -69.15000000
C      -45.92550000     -33.04380000     -68.16390000
C      -46.23850000     -34.22750000     -67.50360000
C      -47.44010000     -34.87910000     -67.72350000
H      -49.52500000     -34.60330000     -68.74300000
H      -46.61270000     -31.72550000     -69.68500000
H      -45.46880000     -34.61480000     -66.82950000
H      -47.65510000     -35.82210000     -67.31730000
C      -44.60800000     -32.36560000     -67.85270000
H      -44.34020000     -32.58580000     -66.82700000
H      -44.68660000     -31.26750000     -68.03690000
C      -49.18320000     -32.38560000     -70.24590000
H      -50.16000000     -32.37170000     -69.74010000
H      -48.94560000     -31.31560000     -70.46000000
S      -43.26510000     -32.85620000     -69.13460000
S      -49.38560000     -33.09390000     -71.96080000
C      -43.31730000     -34.67430000     -69.41700000
H      -42.30760000     -35.03760000     -69.30630000
H      -43.90730000     -35.08340000     -68.63300000
C      -47.79500000     -32.66470000     -72.69940000
H      -47.56140000     -31.61160000     -72.30260000
H      -48.10730000     -32.57580000     -73.75680000
C      -46.68530000     -33.66250000     -72.38390000
H      -46.37970000     -33.55700000     -71.35300000
H      -46.98610000     -34.72640000     -72.40150000
C      -43.97460000     -34.99980000     -70.68920000
H      -45.05800000     -34.71790000     -70.53950000
H      -43.97660000     -36.13160000     -70.76940000
C      -43.38500000     -34.26830000     -71.88860000
C      -42.04600000     -34.37190000     -72.14100000
C      -44.10620000     -33.62170000     -72.92680000
H      -41.33120000     -34.84490000     -71.52510000
C      -43.21070000     -33.13130000     -73.89940000
C      -45.48740000     -33.33450000     -73.26360000
C      -45.63970000     -32.72000000     -74.52620000
S      -41.53560000     -33.59430000     -73.60140000
S      -44.02080000     -32.56740000     -75.27620000
H      -46.56560000     -32.44160000     -75.00160000
