40
Properties=species:S:1:pos:R:3 #=T CELL(abcABC):=T 1.889726e+02=T 90.00000=T Traj:=T positionsangstrom=T Step:=T 0=T Bead:=T pbc="F F F"
C      -48.70300000     -34.55250000     -70.37930000
C      -48.60320000     -33.22340000     -70.86820000
C      -48.01460000     -32.26350000     -70.06410000
C      -47.55990000     -32.56010000     -68.78730000
C      -47.60940000     -33.88000000     -68.32460000
C      -48.22010000     -34.89150000     -69.13230000
H      -49.15950000     -35.30750000     -70.99970000
H      -47.94930000     -31.21310000     -70.54980000
H      -47.25680000     -34.12990000     -67.28500000
H      -48.25820000     -35.93480000     -68.72770000
C      -46.94790000     -31.50800000     -67.91240000
H      -47.00580000     -31.73620000     -66.87470000
H      -47.38460000     -30.54090000     -68.19790000
C      -48.99620000     -32.97620000     -72.29550000
H      -50.06130000     -32.79590000     -72.35520000
H      -48.49530000     -32.01770000     -72.60220000
S      -45.18270000     -31.21410000     -68.42200000
S      -48.59810000     -34.36440000     -73.49790000
C      -44.26050000     -32.95570000     -68.35710000
H      -43.24350000     -32.85790000     -68.10240000
H      -44.71240000     -33.55400000     -67.57700000
C      -46.86760000     -34.18050000     -73.90090000
H      -46.65180000     -33.31400000     -74.52430000
H      -46.55460000     -34.99020000     -74.59490000
C      -45.93920000     -34.09990000     -72.69960000
H      -46.27130000     -33.20090000     -72.11470000
H      -46.18210000     -34.98530000     -72.11040000
C      -44.35790000     -33.80880000     -69.68300000
H      -45.36460000     -33.66110000     -70.08900000
H      -44.23120000     -34.83810000     -69.41570000
C      -43.22690000     -33.47530000     -70.72490000
C      -41.94910000     -33.10690000     -70.43640000
C      -43.39320000     -33.80310000     -72.14750000
H      -41.65550000     -32.69780000     -69.46000000
C      -42.18680000     -33.56970000     -72.90580000
C      -44.44630000     -34.15780000     -73.03400000
C      -43.98990000     -34.21820000     -74.34390000
S      -40.88720000     -33.04600000     -71.85260000
S      -42.29450000     -33.97840000     -74.58590000
H      -44.71320000     -34.35150000     -75.18710000
