40
Properties=species:S:1:pos:R:3 #=T CELL(abcABC):=T 1.889726e+02=T 90.00000=T Traj:=T positionsangstrom=T Step:=T 0=T Bead:=T pbc="F F F"
C      -48.64240000     -34.64350000     -70.47140000
C      -48.48510000     -33.34820000     -70.95080000
C      -47.86410000     -32.39520000     -70.16520000
C      -47.62490000     -32.66270000     -68.79180000
C      -47.88950000     -33.94910000     -68.28270000
C      -48.35310000     -34.96300000     -69.11080000
H      -48.96350000     -35.41340000     -71.16930000
H      -47.49680000     -31.42410000     -70.51670000
H      -47.61220000     -34.17410000     -67.22400000
H      -48.52960000     -35.96240000     -68.82560000
C      -46.93100000     -31.55670000     -67.98200000
H      -46.86310000     -31.79190000     -66.92320000
H      -47.61340000     -30.66610000     -67.98350000
C      -48.78370000     -32.97420000     -72.40760000
H      -49.82140000     -32.67320000     -72.46350000
H      -48.19200000     -32.14790000     -72.76490000
S      -45.18610000     -31.11460000     -68.51240000
S      -48.65750000     -34.30930000     -73.69790000
C      -44.40870000     -32.88120000     -68.42080000
H      -43.37780000     -32.66890000     -68.00770000
H      -44.98020000     -33.24160000     -67.56400000
C      -46.72990000     -34.21520000     -73.97660000
H      -46.63780000     -33.30910000     -74.62920000
H      -46.60070000     -35.07980000     -74.53470000
C      -45.97090000     -34.10050000     -72.70890000
H      -46.26310000     -33.18930000     -72.18390000
H      -46.16850000     -35.01040000     -72.11230000
C      -44.51970000     -33.52340000     -69.78810000
H      -45.50100000     -33.28660000     -70.25030000
H      -44.47780000     -34.64170000     -69.72790000
C      -43.33380000     -33.17400000     -70.72420000
C      -42.02910000     -32.88620000     -70.35450000
C      -43.44330000     -33.64070000     -72.10540000
H      -41.65870000     -32.77890000     -69.30340000
C      -42.14860000     -33.62760000     -72.75630000
C      -44.44410000     -34.10520000     -72.99480000
C      -43.90480000     -34.35740000     -74.24300000
S      -40.87270000     -33.09160000     -71.66280000
S      -42.15560000     -34.17290000     -74.37780000
H      -44.47520000     -34.65270000     -75.16790000
