40
Properties=species:S:1:pos:R:3 #=T CELL(abcABC):=T 1.889726e+02=T 90.00000=T Traj:=T positionsangstrom=T Step:=T 0=T Bead:=T pbc="F F F"
C      -49.39230000     -34.24550000     -68.92450000
C      -48.84970000     -33.41520000     -69.92570000
C      -47.60250000     -32.81050000     -69.69770000
C      -47.00680000     -32.91570000     -68.48200000
C      -47.41690000     -33.89990000     -67.58780000
C      -48.70150000     -34.46320000     -67.74310000
H      -50.33770000     -34.72040000     -69.12550000
H      -47.21950000     -32.05550000     -70.36010000
H      -46.88490000     -34.15460000     -66.71450000
H      -49.10270000     -35.16980000     -66.94760000
C      -45.82750000     -32.05230000     -68.12270000
H      -45.43160000     -32.30640000     -67.14900000
H      -46.16490000     -30.99030000     -68.12990000
C      -49.54590000     -33.30610000     -71.28540000
H      -50.63400000     -33.72340000     -71.20980000
H      -49.59550000     -32.22580000     -71.62240000
S      -44.46800000     -32.13340000     -69.43470000
S      -48.84830000     -34.47140000     -72.52960000
C      -43.71720000     -33.79530000     -68.97410000
H      -42.72360000     -33.55490000     -68.53220000
H      -44.29690000     -34.31630000     -68.12940000
C      -47.36910000     -33.70240000     -73.41030000
H      -47.62180000     -32.65720000     -73.59220000
H      -47.34910000     -34.11980000     -74.41820000
C      -46.07980000     -33.82870000     -72.58840000
H      -46.15180000     -33.35760000     -71.65440000
H      -45.98560000     -34.81910000     -72.27420000
C      -43.64700000     -34.67410000     -70.17070000
H      -44.61500000     -34.97890000     -70.51770000
H      -43.06280000     -35.54500000     -69.81780000
C      -42.87510000     -34.00090000     -71.32560000
C      -41.53760000     -33.89160000     -71.28090000
C      -43.40940000     -33.58240000     -72.61210000
H      -40.98250000     -34.34540000     -70.53310000
C      -42.44490000     -33.04170000     -73.43820000
C      -44.77090000     -33.41400000     -73.15240000
C      -44.68650000     -32.80530000     -74.39220000
S      -40.81690000     -33.37880000     -72.78340000
S      -43.02000000     -32.27750000     -74.84860000
H      -45.58760000     -32.64870000     -75.01260000
