40
Properties=species:S:1:pos:R:3 #=T CELL(abcABC):=T 1.889726e+02=T 90.00000=T Traj:=T positionsangstrom=T Step:=T 0=T Bead:=T pbc="F F F"
C      -48.81160000     -34.49820000     -70.52290000
C      -48.50440000     -33.23700000     -71.10200000
C      -47.96860000     -32.25870000     -70.32720000
C      -47.91770000     -32.37460000     -68.96560000
C      -48.39720000     -33.53070000     -68.36480000
C      -48.81870000     -34.60970000     -69.15050000
H      -49.05600000     -35.30760000     -71.21550000
H      -47.70780000     -31.27840000     -70.71390000
H      -48.40590000     -33.58580000     -67.26540000
H      -49.22120000     -35.50420000     -68.65800000
C      -47.27750000     -31.28560000     -68.15150000
H      -47.55780000     -31.35800000     -67.11340000
H      -47.66800000     -30.29370000     -68.35390000
C      -48.74620000     -33.01980000     -72.61180000
H      -49.77860000     -32.72030000     -72.79220000
H      -48.18670000     -32.05050000     -72.89140000
S      -45.45860000     -31.03820000     -68.33670000
S      -48.35700000     -34.45520000     -73.67630000
C      -44.85010000     -32.80390000     -68.56870000
H      -43.92960000     -32.93070000     -68.04010000
H      -45.54310000     -33.52270000     -68.06830000
C      -46.56080000     -34.11690000     -73.93150000
H      -46.51800000     -33.01440000     -74.07450000
H      -46.32720000     -34.55760000     -74.90030000
C      -45.56810000     -34.72860000     -72.78880000
H      -45.90540000     -34.31170000     -71.84140000
H      -45.75160000     -35.81260000     -72.83800000
C      -44.77820000     -33.20400000     -69.99740000
H      -45.48860000     -32.63930000     -70.60800000
H      -45.08070000     -34.24020000     -70.17300000
C      -43.43150000     -33.18420000     -70.79150000
C      -42.23000000     -32.86970000     -70.22860000
C      -43.28210000     -33.70090000     -72.15950000
H      -42.00570000     -32.48920000     -69.24480000
C      -41.96310000     -33.60560000     -72.65020000
C      -44.12360000     -34.45590000     -73.10920000
C      -43.48180000     -34.78280000     -74.25830000
S      -40.82120000     -33.12520000     -71.39110000
S      -41.69480000     -34.38490000     -74.22520000
H      -43.93810000     -35.25690000     -75.11220000
