40
Properties=species:S:1:pos:R:3 #=T CELL(abcABC):=T 1.889726e+02=T 90.00000=T Traj:=T positionsangstrom=T Step:=T 0=T Bead:=T pbc="F F F"
C      -48.00320000     -36.17680000     -72.62440000
C      -46.61450000     -35.89970000     -72.74870000
C      -46.11870000     -35.00290000     -73.71550000
C      -47.07730000     -34.22610000     -74.38860000
C      -48.42910000     -34.47410000     -74.30970000
C      -48.86180000     -35.43610000     -73.34550000
H      -48.40740000     -36.83760000     -71.83620000
H      -45.08060000     -34.84270000     -73.99580000
H      -49.21800000     -33.89430000     -74.71700000
H      -49.92950000     -35.49350000     -73.12740000
C      -46.52640000     -32.93390000     -75.04010000
H      -47.41500000     -32.23340000     -75.16830000
H      -45.95220000     -33.07880000     -75.98140000
C      -45.66440000     -36.72560000     -71.96340000
H      -46.14250000     -37.57910000     -71.45260000
H      -44.84250000     -37.11080000     -72.56590000
S      -45.40760000     -31.97960000     -73.90480000
S      -44.82040000     -35.61040000     -70.70200000
C      -46.58070000     -31.09430000     -72.81780000
H      -46.36390000     -30.02850000     -72.91760000
H      -47.56700000     -31.20220000     -73.28990000
C      -46.05840000     -35.56420000     -69.44330000
H      -45.74480000     -36.28910000     -68.65760000
H      -46.95910000     -36.08690000     -69.79790000
C      -46.41360000     -34.07010000     -68.92080000
H      -47.07530000     -33.63980000     -69.71130000
H      -46.97630000     -34.02580000     -68.02110000
C      -46.44590000     -31.46230000     -71.40110000
H      -46.90580000     -32.41380000     -71.35780000
H      -47.07750000     -30.74750000     -70.86440000
C      -45.05980000     -31.49840000     -70.85900000
C      -44.05690000     -30.60460000     -71.25990000
C      -44.54750000     -32.28300000     -69.69140000
H      -44.09940000     -30.01230000     -72.21820000
C      -43.30920000     -31.92580000     -69.32850000
C      -45.10330000     -33.31160000     -68.78500000
C      -44.22190000     -33.59960000     -67.75090000
S      -42.50640000     -30.83230000     -70.48290000
S      -42.63470000     -32.79630000     -67.94060000
H      -44.55530000     -34.21000000     -66.87200000
