40
Properties=species:S:1:pos:R:3 #=T CELL(abcABC):=T 1.889726e+02=T 90.00000=T Traj:=T positionsangstrom=T Step:=T 0=T Bead:=T pbc="F F F"
C      -49.20580000     -34.27770000     -70.66860000
C      -48.73080000     -33.25380000     -71.49090000
C      -48.07560000     -32.14450000     -70.93400000
C      -48.01520000     -32.05560000     -69.53730000
C      -48.62550000     -33.03300000     -68.73610000
C      -49.16460000     -34.19090000     -69.26280000
H      -49.57460000     -35.11850000     -71.15540000
H      -47.67030000     -31.36080000     -71.56020000
H      -48.58930000     -32.76970000     -67.69070000
H      -49.57500000     -34.87360000     -68.53310000
C      -47.15750000     -30.99020000     -68.87890000
H      -47.40750000     -31.06950000     -67.78660000
H      -47.33780000     -29.96750000     -69.31470000
C      -48.85970000     -33.27990000     -72.99660000
H      -49.94290000     -33.32890000     -73.21950000
H      -48.49640000     -32.23500000     -73.33690000
S      -45.33850000     -31.26300000     -68.93300000
S      -47.96650000     -34.55450000     -73.93540000
C      -45.14540000     -33.00960000     -68.36890000
H      -44.38450000     -32.95700000     -67.59680000
H      -46.07580000     -33.30680000     -67.84260000
C      -46.12920000     -34.20110000     -73.72950000
H      -45.92860000     -33.15520000     -73.35620000
H      -45.72680000     -34.28130000     -74.72890000
C      -45.38490000     -35.12310000     -72.75860000
H      -45.74600000     -34.80930000     -71.80310000
H      -45.66110000     -36.15730000     -73.01260000
C      -44.75610000     -33.94780000     -69.54450000
H      -45.61660000     -34.25490000     -70.16850000
H      -44.53960000     -34.90110000     -69.07860000
C      -43.55860000     -33.54860000     -70.37650000
C      -42.56600000     -32.71830000     -69.92230000
C      -43.24200000     -34.02540000     -71.76180000
H      -42.45350000     -32.33790000     -68.89340000
C      -42.00390000     -33.57220000     -72.14950000
C      -43.89150000     -34.86800000     -72.76050000
C      -43.08660000     -35.00710000     -73.85180000
S      -41.20480000     -32.42000000     -71.04750000
S      -41.49150000     -34.34620000     -73.70070000
H      -43.26950000     -35.66420000     -74.64880000
