40
Properties=species:S:1:pos:R:3 #=T CELL(abcABC):=T 1.889726e+02=T 90.00000=T Traj:=T positionsangstrom=T Step:=T 0=T Bead:=T pbc="F F F"
C      -48.89340000     -34.45270000     -70.42720000
C      -48.51850000     -33.25960000     -71.09710000
C      -48.10800000     -32.20060000     -70.23480000
C      -47.74570000     -32.42860000     -68.91840000
C      -48.01310000     -33.66070000     -68.28720000
C      -48.65080000     -34.68240000     -69.06630000
H      -49.21560000     -35.27010000     -71.02410000
H      -47.84990000     -31.22430000     -70.55660000
H      -47.76610000     -33.80290000     -67.27270000
H      -48.89770000     -35.63820000     -68.53790000
C      -47.14290000     -31.35120000     -68.08090000
H      -47.30760000     -31.62970000     -67.02850000
H      -47.59280000     -30.34580000     -68.31640000
C      -48.76250000     -33.02670000     -72.54980000
H      -49.83120000     -32.80150000     -72.71880000
H      -48.16070000     -32.23920000     -73.00090000
S      -45.38100000     -31.13100000     -68.32670000
S      -48.36780000     -34.46890000     -73.66320000
C      -44.72280000     -32.82110000     -68.51660000
H      -43.72070000     -32.80740000     -68.11820000
H      -45.35840000     -33.52920000     -67.88610000
C      -46.59890000     -34.02230000     -74.22600000
H      -46.60830000     -32.99280000     -74.48960000
H      -46.22110000     -34.60270000     -75.13390000
C      -45.76790000     -34.39830000     -72.92300000
H      -45.95600000     -33.66250000     -72.10560000
H      -46.01960000     -35.41280000     -72.57200000
C      -44.71130000     -33.30730000     -69.97230000
H      -45.47520000     -32.77480000     -70.52560000
H      -45.03810000     -34.33970000     -69.86050000
C      -43.37250000     -33.22740000     -70.72620000
C      -42.13750000     -32.88660000     -70.26920000
C      -43.24570000     -33.75580000     -72.10990000
H      -41.92520000     -32.33280000     -69.39700000
C      -41.96530000     -33.85860000     -72.59500000
C      -44.24680000     -34.32080000     -73.11690000
C      -43.64010000     -34.58760000     -74.27990000
S      -40.86890000     -33.03340000     -71.42960000
S      -41.92380000     -34.39060000     -74.32240000
H      -44.02170000     -35.03600000     -75.15590000
