40
Properties=species:S:1:pos:R:3 #=T CELL(abcABC):=T 1.889726e+02=T 90.00000=T Traj:=T positionsangstrom=T Step:=T 0=T Bead:=T pbc="F F F"
C      -49.69190000     -34.19830000     -70.88850000
C      -48.80320000     -33.50360000     -71.83360000
C      -48.09690000     -32.43860000     -71.26550000
C      -48.17710000     -31.96490000     -69.94350000
C      -48.92950000     -32.69480000     -69.06560000
C      -49.64730000     -33.77780000     -69.54200000
H      -50.29220000     -35.03550000     -71.16310000
H      -47.38730000     -31.99040000     -71.98230000
H      -49.08550000     -32.49000000     -67.97640000
H      -50.25790000     -34.22630000     -68.73180000
C      -47.38520000     -30.73980000     -69.53130000
H      -48.09400000     -30.17480000     -68.86680000
H      -47.25840000     -30.04630000     -70.35710000
C      -48.82150000     -33.82870000     -73.26410000
H      -49.82800000     -34.23620000     -73.46660000
H      -48.76000000     -32.93680000     -73.91070000
S      -45.66020000     -30.96300000     -68.84580000
S      -47.64740000     -35.12470000     -73.75060000
C      -45.46740000     -32.72950000     -68.71620000
H      -44.67890000     -32.79960000     -67.99950000
H      -46.32240000     -33.08380000     -68.13120000
C      -45.99120000     -34.25520000     -73.58700000
H      -46.19580000     -33.49840000     -72.77890000
H      -45.80280000     -33.74460000     -74.52940000
C      -44.91690000     -35.23550000     -73.14840000
H      -45.29900000     -35.83490000     -72.36480000
H      -44.74120000     -35.94130000     -73.98740000
C      -45.16510000     -33.55510000     -69.98890000
H      -45.90740000     -33.41760000     -70.78290000
H      -45.25650000     -34.62180000     -69.68780000
C      -43.73660000     -33.33120000     -70.52150000
C      -42.77720000     -32.75140000     -69.72090000
C      -43.18750000     -33.84500000     -71.78410000
H      -42.96640000     -32.40110000     -68.72390000
C      -41.82750000     -33.59720000     -71.76390000
C      -43.55850000     -34.69160000     -72.88520000
C      -42.49770000     -34.88280000     -73.76620000
S      -41.17860000     -32.85390000     -70.32930000
S      -41.02540000     -34.11860000     -73.18520000
H      -42.58290000     -35.51370000     -74.62720000
