40
Properties=species:S:1:pos:R:3 #=T CELL(abcABC):=T 1.889726e+02=T 90.00000=T Traj:=T positionsangstrom=T Step:=T 0=T Bead:=T pbc="F F F"
C      -49.28460000     -34.54230000     -71.34560000
C      -48.75540000     -33.51630000     -72.13570000
C      -48.11520000     -32.42220000     -71.50830000
C      -48.27020000     -32.23710000     -70.11590000
C      -49.01990000     -33.17340000     -69.39210000
C      -49.48270000     -34.35650000     -69.95500000
H      -49.73500000     -35.38570000     -71.81580000
H      -47.49310000     -31.78060000     -72.07230000
H      -49.26340000     -32.93680000     -68.33750000
H      -49.93520000     -35.19250000     -69.36920000
C      -47.70290000     -31.13320000     -69.26830000
H      -48.12780000     -31.27100000     -68.21070000
H      -47.94050000     -30.15160000     -69.63760000
C      -48.55800000     -33.73740000     -73.57140000
H      -49.46700000     -33.92770000     -74.16460000
H      -48.13360000     -32.84350000     -74.01930000
S      -45.90220000     -31.08100000     -69.00920000
S      -47.47370000     -35.17040000     -73.79360000
C      -45.52140000     -32.83420000     -68.54940000
H      -44.73540000     -32.88630000     -67.82090000
H      -46.44860000     -33.23120000     -68.06900000
C      -45.87990000     -34.39570000     -73.37730000
H      -46.15680000     -33.72390000     -72.63890000
H      -45.41120000     -33.91110000     -74.24980000
C      -44.78230000     -35.38020000     -72.86340000
H      -45.09650000     -35.86620000     -71.92490000
H      -44.62840000     -36.20470000     -73.52270000
C      -45.17180000     -33.70190000     -69.78480000
H      -45.87620000     -33.64520000     -70.60870000
H      -45.05670000     -34.77770000     -69.43730000
C      -43.79800000     -33.25400000     -70.26590000
C      -42.93050000     -32.46100000     -69.53960000
C      -43.12550000     -33.75610000     -71.49740000
H      -43.08060000     -31.79050000     -68.70970000
C      -41.78810000     -33.34990000     -71.61530000
C      -43.55410000     -34.55930000     -72.60070000
C      -42.60660000     -34.62170000     -73.60170000
S      -41.28710000     -32.29460000     -70.32060000
S      -41.01870000     -33.90150000     -73.10250000
H      -42.66590000     -35.14610000     -74.53030000
