40
Properties=species:S:1:pos:R:3 #=T CELL(abcABC):=T 1.889726e+02=T 90.00000=T Traj:=T positionsangstrom=T Step:=T 0=T Bead:=T pbc="F F F"
C      -49.57890000     -34.29930000     -70.84640000
C      -48.81490000     -33.59930000     -71.79750000
C      -48.19820000     -32.40010000     -71.34850000
C      -48.33040000     -31.88340000     -70.04540000
C      -48.99610000     -32.68400000     -69.11910000
C      -49.56120000     -33.89620000     -69.47500000
H      -50.18500000     -35.16850000     -71.19010000
H      -47.64370000     -31.71540000     -72.04170000
H      -49.09720000     -32.45820000     -68.02090000
H      -50.06680000     -34.54610000     -68.71910000
C      -47.55920000     -30.62100000     -69.48760000
H      -48.19850000     -30.27080000     -68.66460000
H      -47.45910000     -29.84000000     -70.21460000
C      -48.86680000     -33.90540000     -73.31560000
H      -49.84380000     -34.30190000     -73.56860000
H      -48.62720000     -32.99240000     -73.81950000
S      -45.81110000     -31.02070000     -68.84060000
S      -47.58470000     -35.13030000     -73.87000000
C      -45.64480000     -32.89830000     -68.84130000
H      -44.95190000     -33.12730000     -68.01670000
H      -46.63740000     -33.35080000     -68.59710000
C      -45.97440000     -34.16450000     -73.66150000
H      -46.17420000     -33.28540000     -73.07230000
H      -45.56310000     -33.73120000     -74.61220000
C      -44.92230000     -35.13120000     -73.12230000
H      -45.32730000     -35.59770000     -72.12720000
H      -44.88040000     -35.91480000     -73.87960000
C      -45.13820000     -33.59650000     -70.08470000
H      -45.67550000     -33.22160000     -70.95570000
H      -45.44560000     -34.66430000     -70.07420000
C      -43.65670000     -33.46620000     -70.35920000
C      -42.74950000     -32.77010000     -69.57590000
C      -43.05540000     -33.99070000     -71.58400000
H      -42.98950000     -32.21770000     -68.63730000
C      -41.67970000     -33.66770000     -71.67190000
C      -43.53780000     -34.57350000     -72.78790000
C      -42.48030000     -34.79160000     -73.71410000
S      -41.12320000     -32.59700000     -70.37110000
S      -40.94930000     -34.20450000     -73.14360000
H      -42.53340000     -35.23160000     -74.73230000
