40
Properties=species:S:1:pos:R:3 #=T CELL(abcABC):=T 1.889726e+02=T 90.00000=T Traj:=T positionsangstrom=T Step:=T 0=T Bead:=T pbc="F F F"
C      -49.51570000     -34.19230000     -70.90800000
C      -48.89070000     -33.34660000     -71.83270000
C      -48.16450000     -32.21820000     -71.32870000
C      -48.15330000     -31.91070000     -69.97720000
C      -48.85290000     -32.75130000     -69.09060000
C      -49.52030000     -33.84470000     -69.54030000
H      -49.97420000     -35.06680000     -71.32160000
H      -47.63450000     -31.67210000     -72.01150000
H      -48.86290000     -32.60880000     -68.02920000
H      -50.02190000     -34.53910000     -68.89140000
C      -47.40690000     -30.65510000     -69.46990000
H      -47.75660000     -30.15730000     -68.53030000
H      -47.32780000     -29.85990000     -70.22460000
C      -48.91520000     -33.70170000     -73.29740000
H      -49.90410000     -34.05230000     -73.62590000
H      -48.59890000     -32.90390000     -73.97570000
S      -45.64560000     -31.06930000     -68.93790000
S      -47.71780000     -35.08230000     -73.60960000
C      -45.57840000     -32.91470000     -68.73860000
H      -44.83770000     -33.16040000     -67.93430000
H      -46.53560000     -33.30230000     -68.46330000
C      -46.03540000     -34.29500000     -73.44420000
H      -46.01110000     -33.43240000     -72.72380000
H      -45.78500000     -33.92810000     -74.37430000
C      -44.98610000     -35.28710000     -72.87330000
H      -45.38150000     -35.67700000     -71.93860000
H      -44.98090000     -36.08550000     -73.61760000
C      -45.11370000     -33.58570000     -70.04990000
H      -45.85670000     -33.25240000     -70.79250000
H      -45.26530000     -34.62750000     -69.87630000
C      -43.60310000     -33.43800000     -70.43080000
C      -42.65310000     -32.88580000     -69.61050000
C      -43.10200000     -33.90230000     -71.69480000
H      -42.87490000     -32.52490000     -68.60090000
C      -41.75620000     -33.63420000     -71.79970000
C      -43.61340000     -34.68730000     -72.81730000
C      -42.63690000     -34.81130000     -73.77450000
S      -41.11050000     -32.66750000     -70.45990000
S      -41.11700000     -34.21790000     -73.31970000
H      -42.73350000     -35.39370000     -74.66790000
