40
Properties=species:S:1:pos:R:3 #=T CELL(abcABC):=T 1.889726e+02=T 90.00000=T Traj:=T positionsangstrom=T Step:=T 0=T Bead:=T pbc="F F F"
C      -48.48710000     -32.25010000     -73.34140000
C      -47.84810000     -33.53260000     -73.44990000
C      -47.73850000     -34.42750000     -72.37010000
C      -48.36950000     -34.09940000     -71.21850000
C      -48.98350000     -32.86400000     -71.02360000
C      -49.05050000     -31.91250000     -72.08870000
H      -48.47100000     -31.62420000     -74.27830000
H      -47.24200000     -35.35620000     -72.54900000
H      -49.57460000     -32.60790000     -70.15240000
H      -49.47760000     -30.91370000     -72.01210000
C      -48.56940000     -35.17890000     -70.10170000
H      -48.80260000     -36.18400000     -70.53620000
H      -49.41400000     -34.79630000     -69.55220000
C      -47.37360000     -33.96630000     -74.84000000
H      -47.05420000     -34.98990000     -75.00950000
H      -48.12730000     -33.70100000     -75.49610000
S      -46.99900000     -35.31970000     -69.03920000
S      -45.88340000     -32.89380000     -75.40380000
C      -46.82700000     -33.48500000     -68.44550000
H      -47.76840000     -33.02990000     -68.36280000
H      -46.39230000     -33.67930000     -67.56710000
C      -44.54960000     -33.02390000     -74.13380000
H      -43.71960000     -32.56900000     -74.69540000
H      -44.30040000     -34.02970000     -73.86920000
C      -44.78160000     -32.26110000     -72.77540000
H      -44.94120000     -31.16590000     -72.96950000
H      -45.68300000     -32.59390000     -72.21280000
C      -45.83610000     -32.67780000     -69.37420000
H      -45.91410000     -31.59210000     -69.06000000
H      -46.20150000     -32.71970000     -70.41290000
C      -44.36830000     -33.12760000     -69.38600000
C      -43.78250000     -33.44150000     -68.19270000
C      -43.47640000     -32.96210000     -70.51970000
H      -44.31440000     -33.41200000     -67.25650000
C      -42.18800000     -33.34730000     -70.10130000
C      -43.48860000     -32.50780000     -71.93490000
C      -42.19740000     -32.35110000     -72.40590000
S      -42.04360000     -33.77270000     -68.37840000
S      -40.91520000     -32.95230000     -71.31390000
H      -41.92230000     -32.14250000     -73.46280000
