40
Properties=species:S:1:pos:R:3 #=T CELL(abcABC):=T 1.889726e+02=T 90.00000=T Traj:=T positionsangstrom=T Step:=T 0=T Bead:=T pbc="F F F"
C      -49.61480000     -34.59830000     -72.09850000
C      -48.83150000     -33.63590000     -72.66240000
C      -48.42070000     -32.58840000     -71.78520000
C      -48.62070000     -32.62280000     -70.42190000
C      -49.41840000     -33.62710000     -69.83980000
C      -49.90520000     -34.65770000     -70.65880000
H      -50.08840000     -35.40380000     -72.65320000
H      -47.53000000     -32.03020000     -72.18800000
H      -49.65400000     -33.51500000     -68.77720000
H      -50.47020000     -35.43660000     -70.13890000
C      -47.93430000     -31.61890000     -69.50750000
H      -48.34010000     -31.55490000     -68.53320000
H      -47.91400000     -30.64880000     -69.96160000
C      -48.47240000     -33.59530000     -74.09140000
H      -49.16030000     -34.13460000     -74.79780000
H      -48.24850000     -32.61680000     -74.53860000
S      -46.07000000     -32.13390000     -69.16630000
S      -47.03690000     -34.78160000     -74.15810000
C      -45.92400000     -33.94580000     -68.85570000
H      -45.45300000     -34.09980000     -67.82700000
H      -46.84910000     -34.50440000     -68.94040000
C      -45.50460000     -33.75210000     -73.66480000
H      -45.97530000     -33.09440000     -72.88430000
H      -45.24990000     -33.11940000     -74.60280000
C      -44.33550000     -34.63400000     -73.27410000
H      -44.71850000     -35.45870000     -72.63480000
H      -43.99670000     -35.05440000     -74.21420000
C      -44.99810000     -34.64710000     -69.86890000
H      -45.43280000     -34.62320000     -70.85520000
H      -44.93260000     -35.69510000     -69.55120000
C      -43.57810000     -34.00260000     -69.96220000
C      -42.95730000     -33.56550000     -68.85780000
C      -42.87830000     -33.62500000     -71.20480000
H      -43.33730000     -33.45760000     -67.85470000
C      -41.78840000     -32.84610000     -70.97650000
C      -43.10020000     -33.86850000     -72.62800000
C      -42.18730000     -33.15010000     -73.44320000
S      -41.50270000     -32.57080000     -69.22930000
S      -41.01740000     -32.29520000     -72.42040000
H      -42.18020000     -32.95380000     -74.47840000
