40
Properties=species:S:1:pos:R:3 #=T CELL(abcABC):=T 1.889726e+02=T 90.00000=T Traj:=T positionsangstrom=T Step:=T 0=T Bead:=T pbc="F F F"
C      -42.18640000     -31.94670000     -72.07820000
C      -43.31340000     -31.06410000     -72.23460000
C      -44.09260000     -31.11870000     -73.38620000
C      -43.87000000     -32.09180000     -74.38360000
C      -42.79050000     -32.92060000     -74.24830000
C      -41.89470000     -32.80140000     -73.08820000
H      -41.49610000     -31.83000000     -71.25190000
H      -44.85020000     -30.40600000     -73.67800000
H      -42.58420000     -33.68680000     -74.96790000
H      -41.11880000     -33.57340000     -72.89200000
C      -44.89810000     -32.40590000     -75.50570000
H      -44.76130000     -33.31990000     -76.10210000
H      -45.13700000     -31.58360000     -76.25440000
C      -43.58430000     -29.90600000     -71.22310000
H      -42.80020000     -29.15490000     -71.28190000
H      -44.58300000     -29.52800000     -71.43400000
S      -46.60380000     -32.57600000     -74.73590000
S      -43.60700000     -30.44460000     -69.40710000
C      -46.52120000     -33.87630000     -73.49670000
H      -46.90470000     -34.82190000     -73.89460000
H      -45.45110000     -34.14210000     -73.31840000
C      -44.79730000     -31.85680000     -69.30680000
H      -45.72480000     -31.38530000     -69.65470000
H      -44.96070000     -32.09840000     -68.22300000
C      -44.37470000     -33.08790000     -70.04970000
H      -44.43570000     -32.95300000     -71.11530000
H      -43.30670000     -33.25330000     -69.84010000
C      -47.16620000     -33.37540000     -72.23090000
H      -48.16730000     -32.98070000     -72.34810000
H      -46.50320000     -32.59150000     -71.91090000
C      -47.27690000     -34.46240000     -71.14470000
C      -48.30430000     -35.36600000     -71.16760000
C      -46.36960000     -34.76760000     -70.01390000
H      -49.07240000     -35.22440000     -71.86820000
C      -46.84840000     -35.81830000     -69.29750000
C      -45.06550000     -34.35260000     -69.60880000
C      -44.60900000     -35.05810000     -68.54730000
S      -48.38290000     -36.37520000     -69.70630000
S      -45.78090000     -36.27590000     -68.03010000
H      -43.74510000     -34.83110000     -67.92790000
