40
Properties=species:S:1:pos:R:3 #=T CELL(abcABC):=T 1.889726e+02=T 90.00000=T Traj:=T positionsangstrom=T Step:=T 0=T Bead:=T pbc="F F F"
C      -42.05090000     -31.59160000     -72.33890000
C      -43.15080000     -30.76310000     -72.43210000
C      -44.22010000     -30.98150000     -73.32790000
C      -44.16860000     -32.11280000     -74.16870000
C      -43.02280000     -32.99680000     -74.04370000
C      -41.99530000     -32.72520000     -73.17990000
H      -41.33530000     -31.41390000     -71.53410000
H      -45.05690000     -30.31730000     -73.48710000
H      -42.88690000     -33.95450000     -74.64630000
H      -41.18740000     -33.39570000     -73.24610000
C      -45.13470000     -32.43740000     -75.27490000
H      -44.94130000     -33.40190000     -75.82430000
H      -45.26770000     -31.67280000     -76.02230000
C      -43.23140000     -29.69750000     -71.30660000
H      -42.44400000     -28.98800000     -71.38340000
H      -44.09550000     -29.07430000     -71.37250000
S      -46.89590000     -32.57350000     -74.68240000
S      -43.26530000     -30.52400000     -69.62160000
C      -46.79570000     -33.89330000     -73.47700000
H      -47.51200000     -34.68460000     -73.74490000
H      -45.75910000     -34.28290000     -73.49310000
C      -44.52470000     -31.79560000     -69.59170000
H      -45.50330000     -31.50370000     -70.11110000
H      -44.68670000     -31.90870000     -68.56200000
C      -44.16970000     -33.23210000     -70.02550000
H      -43.98880000     -33.45970000     -71.04960000
H      -43.21390000     -33.51410000     -69.56000000
C      -47.21840000     -33.36250000     -72.13750000
H      -48.18570000     -32.91570000     -72.10910000
H      -46.48090000     -32.61970000     -71.78750000
C      -47.23020000     -34.51110000     -71.14100000
C      -48.25210000     -35.41450000     -71.19540000
C      -46.31060000     -34.82720000     -70.03020000
H      -48.95960000     -35.52690000     -72.04380000
C      -46.78270000     -35.97850000     -69.28350000
C      -45.12430000     -34.24360000     -69.39960000
C      -44.82640000     -34.85610000     -68.24510000
S      -48.19370000     -36.71940000     -69.96480000
S      -45.93310000     -36.17920000     -67.77380000
H      -43.91000000     -34.61440000     -67.71120000
