40
Properties=species:S:1:pos:R:3 #=T CELL(abcABC):=T 1.889726e+02=T 90.00000=T Traj:=T positionsangstrom=T Step:=T 0=T Bead:=T pbc="F F F"
C      -42.02870000     -31.83240000     -72.41550000
C      -43.17500000     -31.05220000     -72.36320000
C      -44.25500000     -31.24510000     -73.23130000
C      -44.16710000     -32.26100000     -74.25590000
C      -42.98920000     -33.00960000     -74.33670000
C      -41.99560000     -32.83380000     -73.38170000
H      -41.18890000     -31.65260000     -71.78920000
H      -45.15320000     -30.60080000     -73.13840000
H      -42.81200000     -33.74100000     -75.12920000
H      -41.17600000     -33.49800000     -73.59020000
C      -45.22470000     -32.29590000     -75.35350000
H      -44.86870000     -33.08310000     -75.98560000
H      -45.21150000     -31.28110000     -75.86250000
C      -43.39600000     -29.85960000     -71.34990000
H      -42.59070000     -29.04840000     -71.33860000
H      -44.44680000     -29.59440000     -71.57890000
S      -46.96910000     -32.54420000     -74.74020000
S      -43.24880000     -30.36620000     -69.57780000
C      -46.95920000     -33.91160000     -73.44460000
H      -47.75680000     -34.62670000     -73.66750000
H      -46.09880000     -34.56270000     -73.64260000
C      -44.69610000     -31.53890000     -69.45260000
H      -45.55840000     -31.14350000     -70.03620000
H      -45.08890000     -31.47850000     -68.41750000
C      -44.32050000     -32.98820000     -69.86930000
H      -44.36120000     -32.94830000     -70.98950000
H      -43.25360000     -33.15550000     -69.57970000
C      -46.96660000     -33.39200000     -72.03680000
H      -47.80690000     -32.62650000     -72.00240000
H      -46.02260000     -32.86120000     -71.87060000
C      -47.11520000     -34.54490000     -71.06990000
C      -48.07260000     -35.52120000     -71.27460000
C      -46.36110000     -34.73440000     -69.91130000
H      -48.89350000     -35.60570000     -72.03700000
C      -46.80010000     -35.86620000     -69.18990000
C      -45.23770000     -34.09660000     -69.30680000
C      -44.80990000     -34.85240000     -68.26850000
S      -48.07150000     -36.74150000     -69.97950000
S      -45.83240000     -36.22760000     -67.76310000
H      -44.11790000     -34.49500000     -67.49980000
