40
Properties=species:S:1:pos:R:3 #=T CELL(abcABC):=T 1.889726e+02=T 90.00000=T Traj:=T positionsangstrom=T Step:=T 0=T Bead:=T pbc="F F F"
C      -42.07840000     -31.44040000     -72.27350000
C      -43.38260000     -31.07430000     -72.20490000
C      -44.18750000     -31.59290000     -73.28600000
C      -43.66770000     -32.52340000     -74.19870000
C      -42.28310000     -32.77370000     -74.29160000
C      -41.52310000     -32.16540000     -73.30710000
H      -41.38930000     -31.03310000     -71.56410000
H      -45.27710000     -31.33020000     -73.34420000
H      -41.96260000     -33.40060000     -75.18750000
H      -40.50250000     -32.33590000     -73.30710000
C      -44.62700000     -33.19890000     -75.18910000
H      -44.39310000     -34.24210000     -75.08920000
H      -44.48460000     -32.94090000     -76.22560000
C      -43.89610000     -30.02880000     -71.17860000
H      -43.46500000     -29.02110000     -71.30620000
H      -45.00050000     -29.96870000     -71.31270000
S      -46.37780000     -32.88630000     -74.87220000
S      -43.68720000     -30.49330000     -69.42030000
C      -46.62170000     -33.99880000     -73.41300000
H      -47.14080000     -34.95140000     -73.71730000
H      -45.60490000     -34.38770000     -73.11190000
C      -44.73960000     -31.96150000     -69.27100000
H      -45.69850000     -31.56190000     -69.57070000
H      -44.81450000     -32.27540000     -68.20950000
C      -44.36350000     -33.09850000     -70.18870000
H      -44.65870000     -32.87170000     -71.21410000
H      -43.28740000     -33.19130000     -70.02890000
C      -47.25400000     -33.21140000     -72.23000000
H      -48.18030000     -32.71620000     -72.56360000
H      -46.54970000     -32.53160000     -71.80940000
C      -47.48160000     -34.23520000     -71.11800000
C      -48.65710000     -34.88450000     -70.86350000
C      -46.42690000     -34.67000000     -70.13840000
H      -49.62470000     -34.65270000     -71.34560000
C      -46.90230000     -35.72260000     -69.33900000
C      -45.09710000     -34.34290000     -69.68640000
C      -44.66140000     -35.09230000     -68.65950000
S      -48.59070000     -36.01800000     -69.51070000
S      -45.75790000     -36.33670000     -68.16730000
H      -43.66100000     -35.06750000     -68.23980000
