40
Properties=species:S:1:pos:R:3 #=T CELL(abcABC):=T 1.889726e+02=T 90.00000=T Traj:=T positionsangstrom=T Step:=T 0=T Bead:=T pbc="F F F"
C      -48.80080000     -34.47200000     -69.88740000
C      -47.71610000     -35.21940000     -69.37690000
C      -47.10750000     -36.21550000     -70.19960000
C      -47.49360000     -36.30200000     -71.54160000
C      -48.46600000     -35.44760000     -72.06510000
C      -49.15360000     -34.64850000     -71.19660000
H      -49.37980000     -33.74100000     -69.26810000
H      -46.21520000     -36.80770000     -69.90740000
H      -48.65970000     -35.45910000     -73.13180000
H      -49.83500000     -33.91110000     -71.54800000
C      -46.67960000     -37.25190000     -72.53280000
H      -47.20310000     -37.14050000     -73.53520000
H      -46.62640000     -38.26550000     -72.14610000
C      -47.30600000     -35.01980000     -67.89710000
H      -47.96840000     -34.48250000     -67.24800000
H      -47.13240000     -35.93330000     -67.35050000
S      -44.88520000     -36.72400000     -72.70870000
S      -45.65710000     -34.18410000     -67.78810000
C      -45.07870000     -34.93710000     -72.52670000
H      -45.80760000     -34.62580000     -73.30090000
H      -45.49300000     -34.61610000     -71.57830000
C      -45.63840000     -32.98070000     -69.19960000
H      -46.28830000     -32.09540000     -68.85350000
H      -46.05000000     -33.37650000     -70.13880000
C      -44.18000000     -32.43840000     -69.47000000
H      -43.79700000     -32.08170000     -68.47750000
H      -43.55680000     -33.31470000     -69.75550000
C      -43.72560000     -34.21040000     -72.61060000
H      -42.98700000     -34.60910000     -73.37770000
H      -43.26660000     -34.38860000     -71.59430000
C      -43.78020000     -32.75540000     -72.83020000
C      -43.56450000     -32.31080000     -74.13220000
C      -43.84870000     -31.55170000     -71.93990000
H      -43.69720000     -32.95760000     -75.02740000
C      -43.55950000     -30.40200000     -72.64940000
C      -44.00610000     -31.35670000     -70.53640000
C      -43.97560000     -30.03240000     -70.22360000
S      -43.48500000     -30.59390000     -74.35230000
S      -43.59970000     -29.00100000     -71.55540000
H      -44.24140000     -29.62970000     -69.26660000
