40
Properties=species:S:1:pos:R:3 #=T CELL(abcABC):=T 1.889726e+02=T 90.00000=T Traj:=T positionsangstrom=T Step:=T 0=T Bead:=T pbc="F F F"
C      -41.99810000     -31.24200000     -72.26600000
C      -43.29760000     -30.72000000     -72.41250000
C      -44.18250000     -31.28370000     -73.33640000
C      -43.68210000     -32.26710000     -74.25520000
C      -42.30180000     -32.66420000     -74.23380000
C      -41.53410000     -32.15960000     -73.18990000
H      -41.51320000     -30.88420000     -71.36820000
H      -45.16880000     -30.81200000     -73.38080000
H      -41.91980000     -33.48750000     -74.78590000
H      -40.50260000     -32.60710000     -73.19830000
C      -44.54220000     -33.08950000     -75.24570000
H      -44.27970000     -34.11890000     -75.25530000
H      -44.41490000     -32.63330000     -76.19670000
C      -43.74300000     -29.77440000     -71.23430000
H      -42.97940000     -29.00060000     -71.40390000
H      -44.69700000     -29.30470000     -71.42730000
S      -46.29410000     -32.96500000     -74.74940000
S      -43.65760000     -30.52380000     -69.61480000
C      -46.45580000     -34.05860000     -73.19140000
H      -47.17720000     -34.90280000     -73.51450000
H      -45.40950000     -34.31060000     -72.87670000
C      -44.70750000     -32.03100000     -69.62080000
H      -45.74770000     -31.94320000     -69.93620000
H      -44.76900000     -32.20470000     -68.53240000
C      -44.22950000     -33.44740000     -70.23250000
H      -44.25250000     -33.46110000     -71.31710000
H      -43.18280000     -33.53510000     -69.96210000
C      -47.17000000     -33.27490000     -72.12720000
H      -48.02490000     -32.84610000     -72.64750000
H      -46.65520000     -32.32440000     -71.90880000
C      -47.45890000     -34.26750000     -71.04790000
C      -48.67380000     -34.88330000     -70.84460000
C      -46.49710000     -34.74620000     -70.07880000
H      -49.65900000     -34.69530000     -71.30820000
C      -47.03920000     -35.81170000     -69.26030000
C      -45.14430000     -34.47610000     -69.63890000
C      -44.75210000     -35.19360000     -68.53580000
S      -48.81250000     -36.03850000     -69.57850000
S      -45.86460000     -36.45050000     -68.06090000
H      -43.75450000     -35.10990000     -68.09090000
