40
Properties=species:S:1:pos:R:3 #=T CELL(abcABC):=T 1.889726e+02=T 90.00000=T Traj:=T positionsangstrom=T Step:=T 0=T Bead:=T pbc="F F F"
C      -48.81650000     -34.61000000     -69.50500000
C      -47.58230000     -35.14050000     -69.22350000
C      -47.00270000     -36.11390000     -70.08730000
C      -47.47950000     -36.23010000     -71.44450000
C      -48.61320000     -35.45240000     -71.76620000
C      -49.29730000     -34.73800000     -70.81900000
H      -49.25330000     -33.88330000     -68.83830000
H      -46.14250000     -36.65650000     -69.64650000
H      -49.01350000     -35.36110000     -72.75920000
H      -50.28140000     -34.29490000     -71.09690000
C      -46.79280000     -37.11580000     -72.49480000
H      -47.42870000     -37.12370000     -73.40870000
H      -46.81690000     -38.16340000     -72.05720000
C      -46.90250000     -34.81290000     -67.84240000
H      -47.48360000     -33.98630000     -67.44690000
H      -47.02450000     -35.64830000     -67.18340000
S      -44.96780000     -36.67400000     -72.78300000
S      -45.09840000     -34.59520000     -67.94800000
C      -45.09970000     -34.92450000     -73.39730000
H      -45.04080000     -34.78820000     -74.49210000
H      -46.18930000     -34.65170000     -73.06600000
C      -45.09560000     -33.30640000     -69.14380000
H      -45.86860000     -32.59470000     -68.75810000
H      -45.51290000     -33.75950000     -70.09580000
C      -43.79810000     -32.62300000     -69.52920000
H      -43.36200000     -32.25380000     -68.57360000
H      -43.07440000     -33.36800000     -69.84480000
C      -44.06440000     -34.03940000     -72.59850000
H      -43.15080000     -34.51730000     -72.76280000
H      -44.32560000     -34.01060000     -71.55450000
C      -43.90460000     -32.64410000     -73.02610000
C      -43.71330000     -32.10350000     -74.29680000
C      -43.88810000     -31.58520000     -71.98030000
H      -43.50110000     -32.70060000     -75.11840000
C      -43.89730000     -30.30770000     -72.57370000
C      -43.96820000     -31.47380000     -70.54270000
C      -44.01730000     -30.14340000     -70.16760000
S      -43.60900000     -30.33100000     -74.29830000
S      -44.03010000     -28.97130000     -71.50580000
H      -44.00270000     -29.73380000     -69.14090000
