40
Properties=species:S:1:pos:R:3 #=T CELL(abcABC):=T 1.889726e+02=T 90.00000=T Traj:=T positionsangstrom=T Step:=T 0=T Bead:=T pbc="F F F"
C      -47.55430000     -35.09670000     -69.26240000
C      -46.53050000     -36.03620000     -69.39180000
C      -46.29530000     -36.55600000     -70.63720000
C      -47.02760000     -36.25610000     -71.77410000
C      -48.18390000     -35.46750000     -71.61390000
C      -48.41090000     -34.86270000     -70.39330000
H      -47.68860000     -34.54150000     -68.31830000
H      -45.32230000     -36.98250000     -70.85660000
H      -48.89860000     -35.35830000     -72.47430000
H      -49.19160000     -34.11560000     -70.27340000
C      -46.64620000     -36.84050000     -73.11630000
H      -47.55820000     -36.68270000     -73.76080000
H      -46.34770000     -37.96650000     -73.00130000
C      -45.66720000     -36.24650000     -68.17280000
H      -46.28410000     -36.05440000     -67.26020000
H      -45.22400000     -37.24340000     -68.12320000
S      -45.17990000     -36.07060000     -74.03190000
S      -44.16220000     -35.12210000     -68.18360000
C      -45.65550000     -34.32630000     -73.95390000
H      -45.24830000     -33.75740000     -74.78570000
H      -46.74490000     -34.23410000     -73.94880000
C      -44.71590000     -33.46000000     -68.97970000
H      -44.99970000     -32.75800000     -68.16970000
H      -45.51450000     -33.55620000     -69.74270000
C      -43.50920000     -32.94500000     -69.80190000
H      -42.59140000     -32.75700000     -69.24430000
H      -43.30720000     -33.57940000     -70.64810000
C      -45.12900000     -33.68680000     -72.62440000
H      -44.10650000     -34.06920000     -72.38970000
H      -45.76990000     -34.00770000     -71.84740000
C      -45.04120000     -32.18820000     -72.66150000
C      -45.60740000     -31.43270000     -73.74510000
C      -44.38730000     -31.37570000     -71.73020000
H      -45.97830000     -31.69840000     -74.74150000
C      -44.47380000     -30.03930000     -72.06020000
C      -43.72320000     -31.57230000     -70.46810000
C      -43.41930000     -30.43450000     -69.82800000
S      -45.35840000     -29.70690000     -73.48630000
S      -43.85430000     -29.05800000     -70.83500000
H      -42.97080000     -30.28080000     -68.86540000
