40
Properties=species:S:1:pos:R:3 #=T CELL(abcABC):=T 1.889726e+02=T 90.00000=T Traj:=T positionsangstrom=T Step:=T 0=T Bead:=T pbc="F F F"
C      -46.31380000     -30.86020000     -71.77130000
C      -45.33760000     -30.84330000     -72.76600000
C      -45.43260000     -31.82480000     -73.73860000
C      -46.30340000     -32.87870000     -73.68600000
C      -47.34390000     -32.89040000     -72.67360000
C      -47.36440000     -31.81960000     -71.77610000
H      -46.42250000     -30.01990000     -71.03840000
H      -44.62240000     -31.88780000     -74.51760000
H      -48.02530000     -33.69160000     -72.50940000
H      -48.16490000     -31.70360000     -70.96100000
C      -46.24730000     -34.00120000     -74.64770000
H      -45.45500000     -33.85630000     -75.42700000
H      -47.20770000     -34.23720000     -75.04810000
C      -44.30970000     -29.74650000     -72.86490000
H      -44.03170000     -29.43580000     -73.87780000
H      -44.67550000     -28.83350000     -72.34240000
S      -45.81840000     -35.67060000     -73.78970000
S      -42.57000000     -30.26790000     -72.07810000
C      -44.10670000     -35.34740000     -73.15490000
H      -43.34530000     -35.78370000     -73.75510000
H      -43.79140000     -34.32550000     -73.15410000
C      -43.13570000     -31.08900000     -70.54000000
H      -44.06560000     -30.59690000     -70.15390000
H      -42.35900000     -30.95910000     -69.76680000
C      -43.56570000     -32.54620000     -70.73020000
H      -44.28970000     -32.52140000     -71.52540000
H      -42.76000000     -33.23850000     -70.86820000
C      -43.88710000     -35.85920000     -71.73040000
H      -42.96260000     -35.30540000     -71.39320000
H      -43.76310000     -36.94430000     -71.85430000
C      -44.98010000     -35.58150000     -70.75270000
C      -45.98330000     -36.49130000     -70.56290000
C      -45.08540000     -34.41160000     -69.90000000
H      -46.16630000     -37.51870000     -70.95410000
C      -46.11180000     -34.63220000     -68.96920000
C      -44.40580000     -33.16240000     -69.62950000
C      -45.04630000     -32.48070000     -68.58500000
S      -47.06920000     -36.09330000     -69.21610000
S      -46.25320000     -33.41260000     -67.75880000
H      -44.85180000     -31.47770000     -68.35340000
