40
Properties=species:S:1:pos:R:3 #=T CELL(abcABC):=T 1.889726e+02=T 90.00000=T Traj:=T positionsangstrom=T Step:=T 0=T Bead:=T pbc="F F F"
C      -47.88160000     -35.26080000     -69.47600000
C      -46.59560000     -35.88820000     -69.46360000
C      -46.18420000     -36.37450000     -70.70690000
C      -46.97070000     -36.29050000     -71.83810000
C      -48.20580000     -35.55860000     -71.81230000
C      -48.69130000     -35.10770000     -70.57760000
H      -48.28690000     -34.93190000     -68.50690000
H      -45.31800000     -37.02700000     -70.69800000
H      -48.71780000     -35.47420000     -72.75380000
H      -49.65220000     -34.55240000     -70.39030000
C      -46.65910000     -37.00940000     -73.14190000
H      -47.41100000     -37.04600000     -73.84450000
H      -46.32600000     -38.03950000     -72.91530000
C      -45.78610000     -36.02000000     -68.20690000
H      -46.41590000     -35.93860000     -67.34030000
H      -45.25920000     -37.01360000     -68.20470000
S      -45.16740000     -36.24930000     -73.89160000
S      -44.22560000     -35.01110000     -68.05230000
C      -45.54910000     -34.42060000     -73.95540000
H      -44.96110000     -34.12430000     -74.85200000
H      -46.63630000     -34.33090000     -74.12830000
C      -44.70820000     -33.43570000     -68.84240000
H      -45.04280000     -32.69590000     -68.11150000
H      -45.58830000     -33.58550000     -69.45000000
C      -43.61260000     -32.86830000     -69.80440000
H      -42.76470000     -32.82460000     -69.09850000
H      -43.41140000     -33.73980000     -70.45970000
C      -44.95310000     -33.69120000     -72.71420000
H      -43.86180000     -33.98680000     -72.64950000
H      -45.39680000     -34.07160000     -71.72640000
C      -44.98290000     -32.20290000     -72.70540000
C      -45.47150000     -31.38000000     -73.78490000
C      -44.43080000     -31.31800000     -71.69610000
H      -45.78290000     -31.73520000     -74.83000000
C      -44.48780000     -29.97540000     -71.98140000
C      -43.78140000     -31.54350000     -70.38810000
C      -43.37130000     -30.38190000     -69.80010000
S      -45.30340000     -29.68730000     -73.54460000
S      -43.73490000     -28.98940000     -70.77880000
H      -42.72890000     -30.32250000     -68.95530000
