40
Properties=species:S:1:pos:R:3 #=T CELL(abcABC):=T 1.889726e+02=T 90.00000=T Traj:=T positionsangstrom=T Step:=T 0=T Bead:=T pbc="F F F"
C      -46.77710000     -35.62610000     -69.28520000
C      -45.67900000     -36.19970000     -70.00290000
C      -45.70880000     -36.25390000     -71.39930000
C      -46.88660000     -36.07270000     -72.06370000
C      -48.05280000     -35.74110000     -71.35140000
C      -48.00840000     -35.49480000     -69.97380000
H      -46.82250000     -35.44180000     -68.22180000
H      -44.90910000     -36.70000000     -72.03160000
H      -49.00730000     -35.71140000     -71.80990000
H      -48.90520000     -35.15330000     -69.49200000
C      -47.12120000     -36.38430000     -73.50730000
H      -48.25430000     -36.18760000     -73.56970000
H      -46.91560000     -37.45210000     -73.93350000
C      -44.50580000     -36.74420000     -69.29340000
H      -44.79760000     -36.94830000     -68.24150000
H      -44.17100000     -37.65520000     -69.83960000
S      -46.09400000     -35.35110000     -74.64140000
S      -42.94390000     -35.68650000     -69.26820000
C      -46.44540000     -33.61860000     -74.05150000
H      -46.42740000     -32.94040000     -74.93340000
H      -47.45350000     -33.63250000     -73.73260000
C      -43.58430000     -33.92810000     -69.44060000
H      -43.21490000     -33.38200000     -68.54460000
H      -44.66980000     -33.83740000     -69.47930000
C      -43.03430000     -33.12880000     -70.61310000
H      -41.94750000     -33.13560000     -70.62770000
H      -43.29510000     -33.60140000     -71.62040000
C      -45.34620000     -33.24820000     -73.04930000
H      -44.47010000     -33.36850000     -73.70280000
H      -45.31770000     -34.03800000     -72.32900000
C      -45.47640000     -31.84060000     -72.44340000
C      -46.54590000     -31.01100000     -72.80380000
C      -44.70700000     -31.34030000     -71.34900000
H      -47.22750000     -31.26680000     -73.57710000
C      -45.13350000     -30.05030000     -71.01960000
C      -43.56960000     -31.71280000     -70.54580000
C      -43.15920000     -30.74550000     -69.65290000
S      -46.34650000     -29.44080000     -72.03310000
S      -44.12020000     -29.30640000     -69.78960000
H      -42.37260000     -30.90370000     -68.92590000
