40
Properties=species:S:1:pos:R:3 #=T CELL(abcABC):=T 1.889726e+02=T 90.00000=T Traj:=T positionsangstrom=T Step:=T 0=T Bead:=T pbc="F F F"
C      -47.48570000     -35.21910000     -69.20060000
C      -46.31000000     -35.86520000     -69.61920000
C      -46.17890000     -36.32330000     -70.90150000
C      -47.24570000     -36.01180000     -71.83790000
C      -48.41770000     -35.33990000     -71.36480000
C      -48.48570000     -34.90250000     -70.06800000
H      -47.73090000     -34.92260000     -68.14610000
H      -45.40220000     -37.11230000     -71.07600000
H      -49.17730000     -35.14320000     -72.12880000
H      -49.38100000     -34.44540000     -69.67230000
C      -47.08510000     -36.54410000     -73.22830000
H      -47.81510000     -36.29350000     -73.87470000
H      -47.22030000     -37.63010000     -73.20240000
C      -45.30280000     -36.13700000     -68.61460000
H      -45.67940000     -35.74780000     -67.63590000
H      -45.07970000     -37.17550000     -68.33190000
S      -45.45210000     -36.09890000     -74.00800000
S      -43.61450000     -35.45950000     -69.09900000
C      -45.52720000     -34.26220000     -73.89190000
H      -45.16950000     -33.92620000     -74.81590000
H      -46.60390000     -33.89570000     -73.79420000
C      -43.91940000     -33.64240000     -69.12220000
H      -43.99000000     -33.21360000     -68.11440000
H      -44.90350000     -33.58860000     -69.58450000
C      -42.90660000     -32.87260000     -70.02190000
H      -42.06040000     -32.56860000     -69.39560000
H      -42.57290000     -33.37430000     -70.90040000
C      -44.75150000     -33.70040000     -72.74360000
H      -43.68370000     -34.05260000     -72.68180000
H      -45.14080000     -34.12310000     -71.87150000
C      -44.98410000     -32.18820000     -72.56420000
C      -45.82270000     -31.50410000     -73.42700000
C      -44.43020000     -31.35910000     -71.55960000
H      -46.29580000     -31.79170000     -74.40410000
C      -44.81890000     -30.01690000     -71.67520000
C      -43.44150000     -31.52870000     -70.48810000
C      -43.25690000     -30.37300000     -69.83390000
S      -46.04430000     -29.81460000     -72.97050000
S      -44.14680000     -28.98310000     -70.47460000
H      -42.63030000     -30.26580000     -68.96080000
