40
Properties=species:S:1:pos:R:3 #=T CELL(abcABC):=T 1.889726e+02=T 90.00000=T Traj:=T positionsangstrom=T Step:=T 0=T Bead:=T pbc="F F F"
C      -46.30300000     -30.75560000     -71.76150000
C      -45.21840000     -30.87830000     -72.67830000
C      -45.18730000     -31.95110000     -73.57240000
C      -46.16280000     -32.86600000     -73.56150000
C      -47.23180000     -32.80530000     -72.62500000
C      -47.29480000     -31.71460000     -71.74780000
H      -46.39640000     -29.98770000     -71.00440000
H      -44.35950000     -31.90070000     -74.34570000
H      -47.99590000     -33.56940000     -72.67330000
H      -48.20510000     -31.65630000     -71.05250000
C      -46.26480000     -33.94870000     -74.65350000
H      -45.69680000     -33.59760000     -75.50610000
H      -47.29480000     -34.06060000     -75.04050000
C      -44.12650000     -29.71690000     -72.66260000
H      -43.96060000     -29.35640000     -73.62820000
H      -44.48370000     -28.99500000     -71.94940000
S      -45.75260000     -35.58510000     -74.10830000
S      -42.58640000     -30.37970000     -72.00820000
C      -44.21500000     -35.19170000     -73.19470000
H      -43.37950000     -35.53450000     -73.82080000
H      -44.23710000     -34.09760000     -73.07940000
C      -43.17750000     -31.24470000     -70.45520000
H      -44.06170000     -30.75810000     -70.09110000
H      -42.35860000     -31.03290000     -69.72230000
C      -43.37530000     -32.76670000     -70.62510000
H      -43.51490000     -33.07610000     -71.74740000
H      -42.46610000     -33.28290000     -70.36620000
C      -44.07990000     -35.87620000     -71.88460000
H      -43.12110000     -35.54500000     -71.50200000
H      -44.03690000     -36.95240000     -71.87920000
C      -45.20900000     -35.56700000     -70.84870000
C      -46.07230000     -36.55320000     -70.46210000
C      -45.29300000     -34.42760000     -69.95730000
H      -46.35270000     -37.43960000     -71.01310000
C      -46.25420000     -34.54960000     -68.99230000
C      -44.52800000     -33.20960000     -69.74340000
C      -45.02500000     -32.45600000     -68.65880000
S      -47.06410000     -36.13590000     -69.09400000
S      -46.30260000     -33.33300000     -67.80880000
H      -44.51020000     -31.68330000     -68.15940000
