40
Properties=species:S:1:pos:R:3 #=T CELL(abcABC):=T 1.889726e+02=T 90.00000=T Traj:=T positionsangstrom=T Step:=T 0=T Bead:=T pbc="F F F"
C      -44.29620000     -32.94770000     -74.93110000
C      -44.26610000     -31.71780000     -74.22490000
C      -45.46410000     -31.21770000     -73.76720000
C      -46.68680000     -31.82220000     -73.92160000
C      -46.72950000     -32.95060000     -74.71990000
C      -45.53860000     -33.55950000     -75.12740000
H      -43.37490000     -33.44820000     -75.28410000
H      -45.37890000     -30.32200000     -73.20420000
H      -47.69800000     -33.48460000     -74.80100000
H      -45.35580000     -34.44130000     -75.72900000
C      -47.94000000     -31.18080000     -73.33170000
H      -48.53520000     -30.69510000     -74.03510000
H      -47.63570000     -30.29400000     -72.66330000
C      -42.90990000     -31.06350000     -73.96360000
H      -42.06980000     -31.71080000     -74.34630000
H      -42.93970000     -30.06970000     -74.44630000
S      -48.94020000     -32.40080000     -72.42350000
S      -42.50740000     -30.84610000     -72.20230000
C      -47.92990000     -32.94350000     -70.94510000
H      -47.30700000     -32.15840000     -70.48810000
H      -48.77320000     -33.06670000     -70.21170000
C      -42.88680000     -32.55840000     -71.45390000
H      -41.95890000     -32.92480000     -70.96120000
H      -43.16810000     -33.21970000     -72.28720000
C      -44.10330000     -32.44840000     -70.53810000
H      -43.89170000     -31.51620000     -69.92080000
H      -45.09130000     -32.20760000     -71.05060000
C      -47.03580000     -34.15110000     -71.22010000
H      -46.26850000     -33.75250000     -71.87480000
H      -47.50070000     -34.77680000     -71.96060000
C      -46.44490000     -34.84510000     -70.03790000
C      -47.07640000     -35.94210000     -69.45420000
C      -45.22430000     -34.51160000     -69.35200000
H      -47.91050000     -36.42320000     -69.99000000
C      -44.89710000     -35.52880000     -68.44480000
C      -44.11110000     -33.60010000     -69.58790000
C      -43.01090000     -33.90750000     -68.81620000
S      -46.10910000     -36.76880000     -68.27760000
S      -43.24670000     -35.40250000     -67.79080000
H      -42.01290000     -33.53180000     -68.74760000
