40
Properties=species:S:1:pos:R:3 #=T CELL(abcABC):=T 1.889726e+02=T 90.00000=T Traj:=T positionsangstrom=T Step:=T 0=T Bead:=T pbc="F F F"
C      -44.50790000     -32.83070000     -75.04050000
C      -44.23950000     -31.71180000     -74.28920000
C      -45.34940000     -31.13850000     -73.56970000
C      -46.66300000     -31.65590000     -73.54080000
C      -46.88770000     -32.68090000     -74.48800000
C      -45.84390000     -33.34130000     -75.10400000
H      -43.60350000     -33.41490000     -75.40040000
H      -45.09010000     -30.37360000     -72.85530000
H      -47.88620000     -33.05220000     -74.80170000
H      -46.16950000     -34.16990000     -75.68560000
C      -47.71100000     -30.94810000     -72.76740000
H      -48.23980000     -30.22980000     -73.36580000
H      -47.27230000     -30.30640000     -71.92610000
C      -42.87640000     -31.18850000     -74.19690000
H      -42.19490000     -31.80780000     -74.75260000
H      -42.85170000     -30.14070000     -74.53040000
S      -48.86090000     -32.03960000     -71.89530000
S      -42.32230000     -31.02440000     -72.43840000
C      -47.91850000     -33.03310000     -70.59580000
H      -47.22440000     -32.22430000     -70.15910000
H      -48.58920000     -33.27160000     -69.77760000
C      -42.64040000     -32.72820000     -71.71350000
H      -41.97270000     -32.71530000     -70.87260000
H      -42.45120000     -33.49880000     -72.46710000
C      -43.99140000     -33.00880000     -71.09520000
H      -44.53070000     -32.07960000     -70.92220000
H      -44.52230000     -33.53800000     -71.92680000
C      -47.16920000     -34.14200000     -71.24670000
H      -46.50530000     -33.72170000     -72.03180000
H      -47.67310000     -34.77570000     -71.95810000
C      -46.47120000     -34.98040000     -70.24050000
C      -47.13280000     -36.02860000     -69.64100000
C      -45.16460000     -34.83830000     -69.63050000
H      -48.15010000     -36.41690000     -69.99010000
C      -44.89000000     -35.62500000     -68.56440000
C      -44.01790000     -33.90180000     -69.87750000
C      -42.98220000     -34.13030000     -69.08890000
S      -46.21900000     -36.67680000     -68.25040000
S      -43.43430000     -35.25480000     -67.77000000
H      -42.01280000     -33.64800000     -69.23190000
