40
Properties=species:S:1:pos:R:3 #=T CELL(abcABC):=T 1.889726e+02=T 90.00000=T Traj:=T positionsangstrom=T Step:=T 0=T Bead:=T pbc="F F F"
C      -46.67970000     -35.09910000     -69.39310000
C      -45.82530000     -36.10900000     -69.93340000
C      -46.00980000     -36.63190000     -71.24940000
C      -47.02870000     -36.04610000     -71.99040000
C      -47.85610000     -35.01540000     -71.48500000
C      -47.68290000     -34.50510000     -70.17700000
H      -46.44130000     -34.64930000     -68.47910000
H      -45.39340000     -37.34000000     -71.70300000
H      -48.49790000     -34.40720000     -72.12250000
H      -48.37680000     -33.68970000     -69.94050000
C      -47.21950000     -36.37980000     -73.41150000
H      -48.15340000     -35.73130000     -73.76890000
H      -47.38710000     -37.49800000     -73.59610000
C      -44.70830000     -36.60590000     -69.01460000
H      -44.99790000     -36.56870000     -67.94220000
H      -44.63510000     -37.66490000     -69.26780000
S      -45.88950000     -35.69960000     -74.47710000
S      -43.05310000     -35.72990000     -69.24940000
C      -46.08520000     -33.94690000     -74.04110000
H      -45.84320000     -33.42890000     -74.95340000
H      -47.13980000     -33.67460000     -73.83600000
C      -43.64500000     -33.97640000     -69.25790000
H      -43.57040000     -33.54770000     -68.26870000
H      -44.73700000     -34.05350000     -69.45560000
C      -42.97540000     -33.09890000     -70.30260000
H      -41.90710000     -32.94690000     -69.95020000
H      -42.90040000     -33.48290000     -71.31370000
C      -45.20810000     -33.51140000     -72.85310000
H      -44.10850000     -33.64460000     -73.03710000
H      -45.36140000     -34.18790000     -71.96830000
C      -45.46980000     -32.07130000     -72.41380000
C      -46.36040000     -31.21900000     -73.03260000
C      -44.69460000     -31.36690000     -71.38090000
H      -46.96540000     -31.64900000     -73.81940000
C      -45.06230000     -30.00910000     -71.33980000
C      -43.66260000     -31.69780000     -70.41030000
C      -43.36780000     -30.66900000     -69.52430000
S      -46.41180000     -29.60320000     -72.35060000
S      -44.26310000     -29.27220000     -69.96920000
H      -42.55180000     -30.73110000     -68.77250000
