40
Properties=species:S:1:pos:R:3 #=T CELL(abcABC):=T 1.889726e+02=T 90.00000=T Traj:=T positionsangstrom=T Step:=T 0=T Bead:=T pbc="F F F"
C      -47.39040000     -35.10350000     -69.17300000
C      -46.23830000     -35.78860000     -69.61430000
C      -46.13210000     -36.24130000     -70.93210000
C      -47.23040000     -35.99060000     -71.76600000
C      -48.35350000     -35.30740000     -71.32160000
C      -48.45180000     -34.88960000     -69.98840000
H      -47.41720000     -34.75330000     -68.13240000
H      -45.14060000     -36.53330000     -71.33050000
H      -49.31570000     -35.17780000     -71.89340000
H      -49.26840000     -34.37210000     -69.55910000
C      -47.17070000     -36.38960000     -73.20350000
H      -47.95390000     -35.86690000     -73.86550000
H      -47.35590000     -37.53220000     -73.22750000
C      -45.06610000     -36.15300000     -68.69490000
H      -45.36970000     -35.79320000     -67.68810000
H      -44.96970000     -37.24060000     -68.70580000
S      -45.54720000     -36.09700000     -74.02980000
S      -43.47570000     -35.54780000     -69.28220000
C      -45.56030000     -34.27140000     -74.14180000
H      -44.96950000     -34.05730000     -75.04620000
H      -46.56040000     -33.89250000     -74.24560000
C      -43.90590000     -33.73590000     -69.42160000
H      -44.11260000     -33.31230000     -68.41210000
H      -44.86540000     -33.72960000     -69.99910000
C      -42.85570000     -32.93840000     -70.22030000
H      -42.00700000     -32.85730000     -69.51160000
H      -42.46140000     -33.53370000     -71.06530000
C      -44.75490000     -33.65030000     -72.96010000
H      -43.67900000     -33.74940000     -73.10690000
H      -45.02860000     -34.28000000     -72.04740000
C      -45.11130000     -32.16160000     -72.61540000
C      -45.95400000     -31.37620000     -73.41120000
C      -44.50590000     -31.41390000     -71.52850000
H      -46.64500000     -31.59240000     -74.25500000
C      -44.96390000     -30.08860000     -71.44540000
C      -43.45740000     -31.63680000     -70.48530000
C      -43.23320000     -30.47010000     -69.76680000
S      -46.07630000     -29.70660000     -72.73600000
S      -44.20100000     -29.09220000     -70.22790000
H      -42.47800000     -30.40380000     -69.00290000
