40
Properties=species:S:1:pos:R:3 #=T CELL(abcABC):=T 1.889726e+02=T 90.00000=T Traj:=T positionsangstrom=T Step:=T 0=T Bead:=T pbc="F F F"
C      -46.13950000     -36.35350000     -69.27940000
C      -45.13570000     -36.70150000     -70.27290000
C      -45.56990000     -36.73190000     -71.59840000
C      -46.89020000     -36.35500000     -71.97300000
C      -47.81710000     -35.97680000     -70.98830000
C      -47.40950000     -35.91030000     -69.62060000
H      -45.88540000     -36.41240000     -68.21150000
H      -44.81170000     -36.91200000     -72.35440000
H      -48.81840000     -35.58330000     -71.30970000
H      -48.13750000     -35.54250000     -68.88190000
C      -47.27610000     -36.31990000     -73.38070000
H      -48.37080000     -36.15860000     -73.47340000
H      -47.11930000     -37.30080000     -73.83590000
C      -43.61370000     -36.90460000     -69.82400000
H      -43.53560000     -36.94370000     -68.71210000
H      -43.17560000     -37.85940000     -70.31660000
S      -46.46710000     -35.06420000     -74.48190000
S      -42.43070000     -35.58770000     -70.44610000
C      -46.94630000     -33.38530000     -73.92420000
H      -46.63770000     -32.71220000     -74.70270000
H      -48.01130000     -33.48920000     -73.86420000
C      -43.43730000     -34.05960000     -70.14790000
H      -43.33510000     -33.69630000     -69.14660000
H      -44.49740000     -34.24910000     -70.33930000
C      -43.01590000     -32.96070000     -71.10060000
H      -41.98600000     -32.71500000     -71.09750000
H      -43.41230000     -33.13330000     -72.08400000
C      -46.00320000     -33.04540000     -72.80820000
H      -45.01710000     -33.19200000     -73.28270000
H      -46.09030000     -33.74200000     -71.95000000
C      -46.05100000     -31.64150000     -72.03970000
C      -47.11990000     -30.81200000     -72.01280000
C      -44.95750000     -31.15000000     -71.24090000
H      -48.09650000     -31.03020000     -72.44940000
C      -45.22480000     -29.84670000     -70.77150000
C      -43.69440000     -31.67120000     -70.70490000
C      -43.09980000     -30.75500000     -69.87490000
S      -46.75410000     -29.27730000     -71.25040000
S      -44.01460000     -29.30870000     -69.63360000
H      -42.13270000     -30.92280000     -69.43950000
