40
Properties=species:S:1:pos:R:3 #=T CELL(abcABC):=T 1.889726e+02=T 90.00000=T Traj:=T positionsangstrom=T Step:=T 0=T Bead:=T pbc="F F F"
C      -45.76480000     -33.53630000     -74.87040000
C      -45.31890000     -32.21240000     -74.43930000
C      -46.28950000     -31.44030000     -73.73940000
C      -47.55790000     -31.97820000     -73.38790000
C      -47.98820000     -33.20110000     -73.89220000
C      -47.11430000     -33.98110000     -74.70700000
H      -45.02720000     -34.21310000     -75.32580000
H      -45.97080000     -30.41110000     -73.49070000
H      -48.95550000     -33.63240000     -73.49050000
H      -47.38110000     -34.93930000     -75.14080000
C      -48.51970000     -31.06380000     -72.61140000
H      -49.59400000     -31.16750000     -72.96360000
H      -48.21340000     -30.04660000     -72.68730000
C      -43.97210000     -31.70780000     -74.79890000
H      -43.41240000     -32.42920000     -75.47940000
H      -44.09480000     -30.67430000     -75.32890000
S      -48.65750000     -31.59840000     -70.85480000
S      -42.72810000     -31.33230000     -73.42940000
C      -46.93960000     -32.38590000     -70.59800000
H      -46.17600000     -31.95590000     -71.24100000
H      -46.70410000     -32.07870000     -69.55910000
C      -42.57200000     -32.98580000     -72.52110000
H      -41.70660000     -33.03010000     -71.88640000
H      -42.40130000     -33.65500000     -73.30980000
C      -43.79420000     -33.40740000     -71.72570000
H      -44.42520000     -32.53710000     -71.49060000
H      -44.45820000     -33.93000000     -72.41500000
C      -46.98870000     -33.94300000     -70.74850000
H      -46.82090000     -34.27460000     -71.76510000
H      -47.92750000     -34.39180000     -70.53410000
C      -46.08570000     -34.59530000     -69.68570000
C      -46.69360000     -34.92710000     -68.49500000
C      -44.62780000     -34.67950000     -69.61820000
H      -47.70400000     -35.06420000     -68.14440000
C      -44.16220000     -35.22550000     -68.42650000
C      -43.55780000     -34.24850000     -70.52180000
C      -42.28520000     -34.60710000     -70.10180000
S      -45.44860000     -35.61440000     -67.32910000
S      -42.42130000     -35.50850000     -68.59860000
H      -41.28160000     -34.54130000     -70.56500000
