40
Properties=species:S:1:pos:R:3 #=T CELL(abcABC):=T 1.889726e+02=T 90.00000=T Traj:=T positionsangstrom=T Step:=T 0=T Bead:=T pbc="F F F"
C      -46.72110000     -36.11550000     -69.09800000
C      -45.59540000     -36.42510000     -69.87260000
C      -45.71750000     -36.48500000     -71.30560000
C      -46.98740000     -36.24510000     -71.93210000
C      -48.00750000     -35.83330000     -71.12930000
C      -47.92450000     -35.77980000     -69.75030000
H      -46.70980000     -36.19570000     -68.02000000
H      -44.72970000     -36.59100000     -71.70350000
H      -48.95920000     -35.63300000     -71.54110000
H      -48.79990000     -35.41010000     -69.17140000
C      -47.22120000     -36.45470000     -73.44760000
H      -48.24650000     -36.21040000     -73.86010000
H      -47.08500000     -37.49490000     -73.58250000
C      -44.21030000     -36.65130000     -69.23750000
H      -44.21620000     -36.18540000     -68.19680000
H      -43.99780000     -37.73030000     -69.32050000
S      -46.05360000     -35.35450000     -74.43070000
S      -42.98530000     -35.68760000     -70.27190000
C      -46.36300000     -33.64960000     -73.78250000
H      -46.38670000     -33.06940000     -74.74750000
H      -47.35200000     -33.63470000     -73.29200000
C      -43.59440000     -34.02880000     -69.81310000
H      -43.46890000     -33.85550000     -68.75260000
H      -44.65470000     -33.95790000     -69.92260000
C      -42.88180000     -32.87660000     -70.60780000
H      -41.75930000     -32.76300000     -70.32820000
H      -42.89760000     -33.13340000     -71.68850000
C      -45.25130000     -33.20470000     -72.84230000
H      -44.26420000     -33.33470000     -73.44960000
H      -45.28160000     -33.83000000     -71.91370000
C      -45.42990000     -31.79410000     -72.40440000
C      -46.41370000     -30.96250000     -72.82940000
C      -44.72660000     -31.16000000     -71.28240000
H      -47.06860000     -31.17170000     -73.67200000
C      -45.15340000     -29.87920000     -70.96030000
C      -43.56810000     -31.56120000     -70.45800000
C      -43.22830000     -30.52090000     -69.62630000
S      -46.51590000     -29.45350000     -71.97020000
S      -44.28810000     -29.13030000     -69.69010000
H      -42.43100000     -30.40740000     -68.86440000
