40
Properties=species:S:1:pos:R:3 #=T CELL(abcABC):=T 1.889726e+02=T 90.00000=T Traj:=T positionsangstrom=T Step:=T 0=T Bead:=T pbc="F F F"
C      -46.83670000     -35.98850000     -69.05980000
C      -45.73860000     -36.39810000     -69.80260000
C      -45.84620000     -36.53900000     -71.21540000
C      -47.03600000     -36.24660000     -71.90900000
C      -48.15520000     -35.90560000     -71.15420000
C      -47.99260000     -35.71980000     -69.79540000
H      -46.70680000     -35.75950000     -67.99150000
H      -44.93980000     -36.88340000     -71.69890000
H      -49.15970000     -35.82250000     -71.55490000
H      -48.84990000     -35.31100000     -69.18830000
C      -47.08980000     -36.34480000     -73.46060000
H      -48.04630000     -35.90860000     -73.88500000
H      -46.90520000     -37.41930000     -73.72120000
C      -44.39230000     -36.68540000     -69.16790000
H      -44.35180000     -36.40420000     -68.09900000
H      -44.04580000     -37.72640000     -69.26480000
S      -45.86610000     -35.40160000     -74.51420000
S      -42.93190000     -35.71910000     -69.87470000
C      -46.17760000     -33.57320000     -74.22280000
H      -46.06240000     -32.96910000     -75.04780000
H      -47.24960000     -33.42530000     -73.94450000
C      -43.55920000     -33.99500000     -69.72670000
H      -43.33950000     -33.73540000     -68.69490000
H      -44.66860000     -33.99810000     -69.95180000
C      -42.89360000     -32.98070000     -70.72480000
H      -41.83280000     -32.80550000     -70.40220000
H      -42.99600000     -33.32160000     -71.72030000
C      -45.25940000     -33.03730000     -73.13160000
H      -44.28210000     -33.01430000     -73.48550000
H      -45.17780000     -33.72150000     -72.32290000
C      -45.54170000     -31.68680000     -72.48610000
C      -46.59020000     -30.83250000     -72.80520000
C      -44.69820000     -31.16480000     -71.44420000
H      -47.24380000     -30.88100000     -73.67370000
C      -45.10270000     -29.89380000     -71.04240000
C      -43.65510000     -31.68990000     -70.59370000
C      -43.24990000     -30.76950000     -69.65850000
S      -46.52150000     -29.33660000     -71.86290000
S      -44.21550000     -29.25610000     -69.68100000
H      -42.47550000     -30.82330000     -68.88840000
