40
Properties=species:S:1:pos:R:3 #=T CELL(abcABC):=T 1.889726e+02=T 90.00000=T Traj:=T positionsangstrom=T Step:=T 0=T Bead:=T pbc="F F F"
C      -46.18660000     -35.84310000     -69.41040000
C      -45.30530000     -36.40920000     -70.27350000
C      -45.77520000     -36.79300000     -71.49730000
C      -47.10880000     -36.63030000     -71.98470000
C      -47.98530000     -36.14600000     -71.03690000
C      -47.54990000     -35.79790000     -69.77180000
H      -45.96420000     -35.64980000     -68.35410000
H      -45.03710000     -37.17450000     -72.24820000
H      -48.97370000     -36.01960000     -71.31550000
H      -48.25540000     -35.37530000     -69.05550000
C      -47.49940000     -36.60360000     -73.42060000
H      -48.54340000     -36.23940000     -73.51730000
H      -47.49770000     -37.54880000     -73.88720000
C      -43.91890000     -36.84010000     -69.78510000
H      -43.93250000     -36.85450000     -68.72200000
H      -43.66140000     -37.79670000     -70.14000000
S      -46.43240000     -35.38350000     -74.27700000
S      -42.72490000     -35.51930000     -70.41560000
C      -46.73000000     -33.71880000     -73.51780000
H      -46.91510000     -33.00450000     -74.37630000
H      -47.55260000     -33.55250000     -72.83300000
C      -43.43670000     -33.97840000     -69.74950000
H      -43.31870000     -33.72690000     -68.63410000
H      -44.51580000     -33.98350000     -69.90170000
C      -42.82870000     -32.77830000     -70.54430000
H      -41.86960000     -32.69870000     -70.00020000
H      -42.76300000     -33.07990000     -71.54790000
C      -45.47210000     -33.25670000     -72.72470000
H      -44.57500000     -33.30020000     -73.34770000
H      -45.42660000     -34.01330000     -71.95630000
C      -45.52580000     -31.81770000     -72.23880000
C      -46.56500000     -30.98470000     -72.65300000
C      -44.72830000     -31.12780000     -71.19240000
H      -47.43230000     -31.28900000     -73.23610000
C      -45.10960000     -29.74630000     -70.96630000
C      -43.57920000     -31.46960000     -70.44900000
C      -43.20720000     -30.43740000     -69.57150000
S      -46.60840000     -29.41700000     -71.82300000
S      -44.24810000     -28.99430000     -69.69740000
H      -42.39560000     -30.26850000     -68.86340000
