40
Properties=species:S:1:pos:R:3 #=T CELL(abcABC):=T 1.889726e+02=T 90.00000=T Traj:=T positionsangstrom=T Step:=T 0=T Bead:=T pbc="F F F"
C      -46.03990000     -36.19950000     -69.27150000
C      -45.11530000     -36.65330000     -70.16020000
C      -45.51810000     -36.64190000     -71.51210000
C      -46.76830000     -36.33810000     -71.92420000
C      -47.76830000     -35.97020000     -70.99230000
C      -47.29470000     -35.89430000     -69.66900000
H      -45.72830000     -36.07930000     -68.25690000
H      -44.81690000     -36.94400000     -72.30350000
H      -48.83720000     -35.67160000     -71.21680000
H      -48.04570000     -35.55420000     -68.94340000
C      -47.12970000     -36.39870000     -73.38340000
H      -48.18240000     -36.47910000     -73.41490000
H      -46.70640000     -37.29020000     -73.88950000
C      -43.77020000     -37.01060000     -69.68420000
H      -43.68920000     -36.95360000     -68.61270000
H      -43.27920000     -37.92170000     -69.99910000
S      -46.47160000     -35.11730000     -74.51480000
S      -42.69940000     -35.72160000     -70.51000000
C      -46.83490000     -33.50020000     -73.66120000
H      -47.08290000     -32.67650000     -74.37950000
H      -47.84090000     -33.71430000     -73.20620000
C      -43.39490000     -34.01440000     -70.01400000
H      -42.97630000     -33.90800000     -68.96750000
H      -44.51380000     -34.11040000     -70.00930000
C      -42.99130000     -32.91510000     -70.94290000
H      -41.92000000     -32.86920000     -70.83390000
H      -43.16330000     -33.31500000     -71.99530000
C      -45.81580000     -33.07660000     -72.67640000
H      -44.83570000     -33.37160000     -73.06980000
H      -45.88890000     -33.81220000     -71.85790000
C      -45.89510000     -31.62400000     -72.17030000
C      -46.96390000     -30.79150000     -72.39990000
C      -44.95030000     -31.16280000     -71.18060000
H      -47.77250000     -30.86450000     -73.19260000
C      -45.34220000     -29.92600000     -70.69430000
C      -43.68090000     -31.59190000     -70.68170000
C      -43.15140000     -30.65180000     -69.83240000
S      -46.81060000     -29.29040000     -71.40690000
S      -44.10170000     -29.16560000     -69.70940000
H      -42.17470000     -30.86890000     -69.32430000
