40
Properties=species:S:1:pos:R:3 #=T CELL(abcABC):=T 1.889726e+02=T 90.00000=T Traj:=T positionsangstrom=T Step:=T 0=T Bead:=T pbc="F F F"
C      -46.13790000     -34.09820000     -74.46890000
C      -45.79470000     -32.72240000     -74.35140000
C      -46.71600000     -31.87870000     -73.64440000
C      -47.97220000     -32.35160000     -73.16610000
C      -48.24010000     -33.69310000     -73.39660000
C      -47.30320000     -34.54190000     -73.97410000
H      -45.41600000     -34.77400000     -74.84170000
H      -46.39880000     -30.86230000     -73.41070000
H      -49.19880000     -34.13890000     -73.18730000
H      -47.54730000     -35.56910000     -74.04450000
C      -48.84240000     -31.45830000     -72.40390000
H      -49.81710000     -31.44310000     -72.81120000
H      -48.50540000     -30.44590000     -72.45670000
C      -44.62680000     -32.23750000     -75.06370000
H      -44.02480000     -32.96070000     -75.66260000
H      -45.01330000     -31.44110000     -75.76440000
S      -48.93830000     -31.81140000     -70.61940000
S      -43.40350000     -31.22440000     -74.05620000
C      -47.17450000     -32.28740000     -70.11560000
H      -46.42740000     -31.71210000     -70.64780000
H      -47.08290000     -32.02450000     -69.09830000
C      -42.71580000     -32.44000000     -72.82370000
H      -41.96840000     -31.89300000     -72.33870000
H      -42.27830000     -33.26230000     -73.39030000
C      -43.79880000     -32.91520000     -71.88700000
H      -44.42420000     -32.07460000     -71.48850000
H      -44.57040000     -33.57970000     -72.39170000
C      -46.84150000     -33.75640000     -70.29690000
H      -46.64940000     -33.99080000     -71.33410000
H      -47.75990000     -34.31510000     -70.03760000
C      -45.71650000     -34.20290000     -69.39330000
C      -46.04690000     -34.93170000     -68.27970000
C      -44.23020000     -34.27830000     -69.66770000
H      -46.94820000     -35.21770000     -67.83090000
C      -43.58280000     -34.98840000     -68.64720000
C      -43.33040000     -33.73820000     -70.64090000
C      -41.99570000     -34.16320000     -70.44630000
S      -44.67450000     -35.64740000     -67.43960000
S      -41.83830000     -35.13540000     -69.02670000
H      -41.03610000     -34.10040000     -70.96370000
