40
Properties=species:S:1:pos:R:3 #=T CELL(abcABC):=T 1.889726e+02=T 90.00000=T Traj:=T positionsangstrom=T Step:=T 0=T Bead:=T pbc="F F F"
C      -46.02290000     -30.91490000     -71.50930000
C      -45.13690000     -30.78150000     -72.55880000
C      -45.21380000     -31.67340000     -73.65600000
C      -46.29580000     -32.62200000     -73.73340000
C      -47.20050000     -32.66450000     -72.66090000
C      -47.10550000     -31.83710000     -71.58040000
H      -46.06090000     -30.22770000     -70.69330000
H      -44.59260000     -31.65600000     -74.45830000
H      -48.04690000     -33.40350000     -72.80180000
H      -47.81820000     -31.91650000     -70.84970000
C      -46.26450000     -33.66220000     -74.85380000
H      -45.58710000     -33.43610000     -75.66250000
H      -47.21490000     -33.95930000     -75.23470000
C      -44.00420000     -29.77620000     -72.49010000
H      -43.85750000     -29.40480000     -73.53970000
H      -44.31210000     -28.95200000     -71.86460000
S      -45.82200000     -35.30080000     -74.02950000
S      -42.40880000     -30.51210000     -71.81880000
C      -44.23960000     -34.95210000     -73.10930000
H      -43.35140000     -34.99490000     -73.81970000
H      -44.35920000     -33.91530000     -72.90630000
C      -42.83650000     -31.44520000     -70.27160000
H      -43.57020000     -30.78720000     -69.69940000
H      -41.98250000     -31.53350000     -69.64940000
C      -43.40980000     -32.87130000     -70.55100000
H      -43.81730000     -32.81640000     -71.53810000
H      -42.57750000     -33.60860000     -70.51360000
C      -44.05530000     -35.89970000     -71.92740000
H      -43.12320000     -35.71460000     -71.34200000
H      -44.13960000     -36.92880000     -72.17720000
C      -45.19120000     -35.66690000     -70.85950000
C      -46.13300000     -36.61400000     -70.71640000
C      -45.28480000     -34.52790000     -69.96060000
H      -46.11200000     -37.64670000     -71.12430000
C      -46.30520000     -34.73720000     -68.97770000
C      -44.53720000     -33.32550000     -69.67170000
C      -45.12620000     -32.67100000     -68.60700000
S      -47.20790000     -36.15950000     -69.40900000
S      -46.54110000     -33.40050000     -67.91850000
H      -44.99980000     -31.60890000     -68.37330000
