40
Properties=species:S:1:pos:R:3 #=T CELL(abcABC):=T 1.889726e+02=T 90.00000=T Traj:=T positionsangstrom=T Step:=T 0=T Bead:=T pbc="F F F"
C      -44.03630000     -35.47110000     -74.63060000
C      -44.45310000     -35.90310000     -73.36890000
C      -43.70000000     -35.50350000     -72.25610000
C      -42.60680000     -34.69510000     -72.34150000
C      -42.30050000     -34.18430000     -73.59720000
C      -42.96060000     -34.60280000     -74.76870000
H      -44.59650000     -35.84180000     -75.47940000
H      -43.99330000     -35.86750000     -71.26260000
H      -41.58080000     -33.40900000     -73.62820000
H      -42.70620000     -34.11690000     -75.72770000
C      -41.75590000     -34.38580000     -71.16580000
H      -40.87580000     -35.02660000     -71.08400000
H      -42.31840000     -34.56130000     -70.23320000
C      -45.66640000     -36.64440000     -73.21440000
H      -46.00440000     -37.15530000     -74.12690000
H      -45.68180000     -37.46530000     -72.49660000
S      -41.18580000     -32.65540000     -71.11340000
S      -47.14910000     -35.62450000     -72.47160000
C      -42.61130000     -32.02840000     -70.16250000
H      -42.59700000     -32.54960000     -69.14810000
H      -42.49480000     -30.96400000     -69.98680000
C      -47.22060000     -34.08210000     -73.41930000
H      -48.30830000     -33.88420000     -73.47400000
H      -46.73080000     -34.35380000     -74.40670000
C      -46.53730000     -32.87870000     -72.70420000
H      -45.57040000     -33.30200000     -72.39360000
H      -46.55860000     -32.03620000     -73.40250000
C      -43.99930000     -32.33710000     -70.67650000
H      -44.07200000     -33.41600000     -70.86250000
H      -44.21660000     -31.92550000     -71.66100000
C      -45.18810000     -32.00520000     -69.74110000
C      -45.20670000     -31.53140000     -68.48450000
C      -46.59090000     -32.16970000     -70.20650000
H      -44.34000000     -31.28640000     -67.90040000
C      -47.55490000     -31.75960000     -69.23460000
C      -47.25650000     -32.57360000     -71.44350000
C      -48.62970000     -32.63250000     -71.35980000
S      -46.81460000     -31.10880000     -67.85910000
S      -49.21700000     -32.15590000     -69.73440000
H      -49.49070000     -32.92030000     -71.97360000
