40
Properties=species:S:1:pos:R:3 #=T CELL(abcABC):=T 1.889726e+02=T 90.00000=T Traj:=T positionsangstrom=T Step:=T 0=T Bead:=T pbc="F F F"
C      -44.11920000     -35.58730000     -74.73370000
C      -44.51450000     -35.94530000     -73.46460000
C      -43.81390000     -35.50940000     -72.32780000
C      -42.71010000     -34.68200000     -72.46330000
C      -42.39230000     -34.27740000     -73.78210000
C      -43.02300000     -34.70740000     -74.93070000
H      -44.67710000     -35.96520000     -75.62560000
H      -44.04350000     -35.92850000     -71.32680000
H      -41.45680000     -33.75510000     -73.82300000
H      -42.66220000     -34.32820000     -75.88440000
C      -41.75610000     -34.35320000     -71.22340000
H      -40.74510000     -34.69010000     -71.54120000
H      -42.09400000     -34.93660000     -70.36400000
C      -45.77540000     -36.74270000     -73.34950000
H      -45.98990000     -37.02150000     -74.34320000
H      -45.63110000     -37.62730000     -72.71810000
S      -41.36270000     -32.56090000     -70.91170000
S      -47.12200000     -35.70960000     -72.55200000
C      -42.75880000     -31.96470000     -69.79220000
H      -42.66920000     -32.37820000     -68.75890000
H      -42.68570000     -30.92570000     -69.63990000
C      -47.01010000     -34.13010000     -73.51810000
H      -47.92620000     -33.92710000     -74.04860000
H      -46.32270000     -34.25120000     -74.29700000
C      -46.59680000     -32.88690000     -72.76350000
H      -45.51950000     -32.75800000     -72.73540000
H      -46.75330000     -32.08810000     -73.45020000
C      -44.00200000     -32.18300000     -70.58330000
H      -44.11160000     -33.25230000     -70.76860000
H      -43.87280000     -31.64030000     -71.52220000
C      -45.19300000     -31.75360000     -69.82250000
C      -45.14900000     -31.22900000     -68.57160000
C      -46.53770000     -31.99520000     -70.25130000
H      -44.26260000     -30.82200000     -68.12560000
C      -47.46570000     -31.76900000     -69.21280000
C      -47.20640000     -32.58510000     -71.43180000
C      -48.56550000     -32.73660000     -71.28100000
S      -46.71870000     -31.19960000     -67.75370000
S      -49.09010000     -32.22150000     -69.63840000
H      -49.29380000     -33.28820000     -71.86990000
