40
Properties=species:S:1:pos:R:3 #=T CELL(abcABC):=T 1.889726e+02=T 90.00000=T Traj:=T positionsangstrom=T Step:=T 0=T Bead:=T pbc="F F F"
C      -46.01880000     -30.76990000     -71.43910000
C      -45.01140000     -30.76450000     -72.40770000
C      -45.17560000     -31.63080000     -73.53910000
C      -46.18700000     -32.59900000     -73.65170000
C      -47.14500000     -32.60590000     -72.60600000
C      -47.03630000     -31.70030000     -71.56970000
H      -45.82460000     -30.15220000     -70.58440000
H      -44.44930000     -31.56670000     -74.28060000
H      -47.91810000     -33.33210000     -72.61990000
H      -47.79960000     -31.78470000     -70.83790000
C      -46.31610000     -33.61490000     -74.74430000
H      -45.62370000     -33.36890000     -75.59600000
H      -47.33200000     -33.77650000     -75.15000000
C      -43.82780000     -29.82090000     -72.29630000
H      -43.58650000     -29.23910000     -73.18340000
H      -44.14820000     -29.07980000     -71.50500000
S      -45.98740000     -35.27820000     -73.99250000
S      -42.23910000     -30.63040000     -71.70780000
C      -44.30690000     -35.06720000     -73.29870000
H      -43.58190000     -35.41580000     -74.06930000
H      -44.15770000     -34.02130000     -73.05650000
C      -42.92500000     -31.49050000     -70.18200000
H      -43.69130000     -30.92300000     -69.69180000
H      -42.07730000     -31.38550000     -69.55050000
C      -43.36760000     -32.89550000     -70.50750000
H      -43.66560000     -33.04120000     -71.58540000
H      -42.52140000     -33.58140000     -70.41050000
C      -44.05370000     -35.81810000     -71.98130000
H      -43.19970000     -35.31680000     -71.55200000
H      -43.77990000     -36.90200000     -72.26950000
C      -45.22310000     -35.62940000     -71.00110000
C      -46.19200000     -36.55220000     -70.86670000
C      -45.31410000     -34.55090000     -70.05200000
H      -46.36310000     -37.35810000     -71.58910000
C      -46.47030000     -34.62630000     -69.23520000
C      -44.52330000     -33.41590000     -69.68750000
C      -45.09710000     -32.75320000     -68.62120000
S      -47.29580000     -36.09390000     -69.57420000
S      -46.55700000     -33.50970000     -67.92520000
H      -44.68820000     -31.85350000     -68.04530000
