40
Properties=species:S:1:pos:R:3 #=T CELL(abcABC):=T 1.889726e+02=T 90.00000=T Traj:=T positionsangstrom=T Step:=T 0=T Bead:=T pbc="F F F"
C      -44.04280000     -35.38270000     -74.77740000
C      -44.46090000     -35.78180000     -73.48220000
C      -43.70440000     -35.43700000     -72.41670000
C      -42.50090000     -34.71980000     -72.45420000
C      -42.10600000     -34.35070000     -73.74850000
C      -42.86550000     -34.64490000     -74.90730000
H      -44.64520000     -35.60370000     -75.67560000
H      -44.07970000     -35.52980000     -71.44740000
H      -41.19990000     -33.72470000     -73.90510000
H      -42.48140000     -34.38940000     -75.88120000
C      -41.75180000     -34.49270000     -71.22410000
H      -40.89980000     -35.20010000     -71.12780000
H      -42.35250000     -34.78050000     -70.41400000
C      -45.69210000     -36.59110000     -73.23750000
H      -45.93960000     -37.14950000     -74.22030000
H      -45.42070000     -37.31260000     -72.49930000
S      -41.28900000     -32.73020000     -70.86030000
S      -47.14160000     -35.64780000     -72.61700000
C      -42.75310000     -32.14150000     -69.94580000
H      -42.99080000     -32.92530000     -69.23660000
H      -42.36330000     -31.24110000     -69.38680000
C      -47.10820000     -34.03600000     -73.59280000
H      -48.16090000     -33.74150000     -73.96090000
H      -46.47320000     -34.13550000     -74.48690000
C      -46.46190000     -33.08150000     -72.60540000
H      -45.44570000     -33.50670000     -72.34840000
H      -46.25480000     -32.13490000     -73.17430000
C      -44.06180000     -31.72740000     -70.73200000
H      -44.34140000     -32.40300000     -71.59090000
H      -43.92080000     -30.73800000     -71.22930000
C      -45.27740000     -31.75830000     -69.81430000
C      -45.25010000     -31.20600000     -68.53570000
C      -46.63060000     -32.04830000     -70.22880000
H      -44.27740000     -30.99590000     -68.11380000
C      -47.54610000     -31.90120000     -69.17800000
C      -47.25290000     -32.69830000     -71.36060000
C      -48.63760000     -32.77120000     -71.23830000
S      -46.88210000     -31.16920000     -67.73890000
S      -49.16640000     -32.27340000     -69.65420000
H      -49.34640000     -33.15580000     -71.96060000
