40
Properties=species:S:1:pos:R:3 #=T CELL(abcABC):=T 1.889726e+02=T 90.00000=T Traj:=T positionsangstrom=T Step:=T 0=T Bead:=T pbc="F F F"
C      -46.35350000     -34.28980000     -74.61010000
C      -45.97070000     -32.95860000     -74.54070000
C      -46.74930000     -31.98150000     -73.90570000
C      -47.94400000     -32.41960000     -73.25060000
C      -48.32510000     -33.78160000     -73.35700000
C      -47.56840000     -34.77440000     -73.99920000
H      -45.72250000     -35.02140000     -75.14520000
H      -46.38520000     -30.99850000     -73.82020000
H      -49.19800000     -34.00900000     -72.75200000
H      -47.92460000     -35.81820000     -74.00710000
C      -48.64190000     -31.44210000     -72.36320000
H      -49.72740000     -31.41960000     -72.54710000
H      -48.31110000     -30.47310000     -72.54120000
C      -44.77660000     -32.51330000     -75.19400000
H      -44.10380000     -33.37750000     -75.42260000
H      -44.96670000     -31.97760000     -76.11540000
S      -48.70560000     -31.83620000     -70.54900000
S      -43.77140000     -31.35260000     -74.11050000
C      -46.90720000     -32.32370000     -70.07900000
H      -46.17710000     -31.68360000     -70.64770000
H      -46.64650000     -31.81970000     -69.17310000
C      -43.07290000     -32.47430000     -72.88200000
H      -42.41990000     -31.83910000     -72.26940000
H      -42.49530000     -33.20870000     -73.31710000
C      -44.04470000     -33.06150000     -71.93080000
H      -44.66030000     -32.28880000     -71.55180000
H      -44.62160000     -33.83380000     -72.37870000
C      -46.69500000     -33.84550000     -70.27230000
H      -46.47840000     -34.15320000     -71.32130000
H      -47.60410000     -34.35650000     -70.13700000
C      -45.60070000     -34.37760000     -69.36510000
C      -45.91680000     -35.09300000     -68.23840000
C      -44.21300000     -34.18480000     -69.57310000
H      -46.83260000     -35.35960000     -67.66810000
C      -43.45500000     -34.71450000     -68.56260000
C      -43.38410000     -33.72070000     -70.64550000
C      -42.01940000     -33.87370000     -70.45160000
S      -44.38870000     -35.50640000     -67.39470000
S      -41.75920000     -34.65800000     -68.87790000
H      -41.28390000     -33.30620000     -70.96730000
