40
Properties=species:S:1:pos:R:3 #=T CELL(abcABC):=T 1.889726e+02=T 90.00000=T Traj:=T positionsangstrom=T Step:=T 0=T Bead:=T pbc="F F F"
C      -47.07170000     -30.19670000     -69.80750000
C      -45.71330000     -30.11950000     -70.05530000
C      -45.20440000     -30.26020000     -71.34860000
C      -46.10610000     -30.24850000     -72.40750000
C      -47.46900000     -30.17520000     -72.17690000
C      -47.95570000     -30.21500000     -70.88450000
H      -47.49890000     -30.34650000     -68.82120000
H      -44.08580000     -30.06020000     -71.48110000
H      -48.18310000     -30.38840000     -72.98690000
H      -49.06430000     -30.25680000     -70.69490000
C      -45.55470000     -30.51180000     -73.74090000
H      -44.44830000     -30.69490000     -73.62990000
H      -45.57320000     -29.62880000     -74.37400000
C      -44.77130000     -30.03810000     -68.84920000
H      -43.75140000     -29.84160000     -69.19650000
H      -45.08290000     -29.35660000     -68.03920000
S      -46.23740000     -31.83890000     -74.65370000
S      -44.97840000     -31.68270000     -67.88880000
C      -45.89520000     -33.25650000     -73.55880000
H      -46.53130000     -33.03320000     -72.65600000
H      -46.37720000     -34.14690000     -73.96490000
C      -44.47230000     -33.05140000     -69.00570000
H      -44.11300000     -33.89300000     -68.42760000
H      -43.56290000     -32.76170000     -69.55210000
C      -45.65640000     -33.54910000     -69.91230000
H      -46.58120000     -33.45870000     -69.37100000
H      -45.74550000     -32.96150000     -70.87440000
C      -44.39500000     -33.57850000     -73.32840000
H      -43.86530000     -32.83340000     -72.70960000
H      -43.93440000     -33.63990000     -74.27880000
C      -44.29500000     -34.94100000     -72.72360000
C      -43.72600000     -35.91760000     -73.49000000
C      -44.88300000     -35.46330000     -71.45790000
H      -43.17260000     -35.76810000     -74.41460000
C      -44.56290000     -36.79610000     -71.35120000
C      -45.47590000     -34.98760000     -70.17150000
C      -45.76870000     -36.00440000     -69.32220000
S      -43.74620000     -37.49600000     -72.75950000
S      -44.90950000     -37.52350000     -69.80330000
H      -46.05020000     -36.01650000     -68.28410000
