40
Properties=species:S:1:pos:R:3 #=T CELL(abcABC):=T 1.889726e+02=T 90.00000=T Traj:=T positionsangstrom=T Step:=T 0=T Bead:=T pbc="F F F"
C      -45.70420000     -35.24070000     -74.44180000
C      -46.06280000     -33.92740000     -74.57660000
C      -47.20430000     -33.50300000     -73.93790000
C      -47.98560000     -34.36200000     -73.16120000
C      -47.47870000     -35.60510000     -72.91810000
C      -46.40560000     -36.10130000     -73.63000000
H      -44.73380000     -35.59770000     -74.92160000
H      -47.49110000     -32.42930000     -73.96560000
H      -48.07160000     -36.17350000     -72.25240000
H      -46.06390000     -37.07950000     -73.34750000
C      -49.31300000     -33.93290000     -72.59440000
H      -49.87930000     -34.79530000     -72.41180000
H      -49.94630000     -33.21790000     -73.12190000
C      -45.00390000     -32.99380000     -75.22860000
H      -44.07970000     -33.59670000     -75.23740000
H      -45.14170000     -32.83610000     -76.32190000
S      -49.10680000     -33.19100000     -70.83170000
S      -44.75720000     -31.38500000     -74.38020000
C      -47.39670000     -32.84230000     -70.54830000
H      -46.96770000     -32.47030000     -71.50730000
H      -47.23970000     -32.03180000     -69.75920000
C      -43.67760000     -31.54120000     -72.92040000
H      -43.93960000     -30.88910000     -72.13920000
H      -42.65310000     -31.36680000     -73.09160000
C      -43.60530000     -32.97450000     -72.24710000
H      -44.57480000     -33.33370000     -72.18770000
H      -42.92690000     -33.61860000     -72.89360000
C      -46.47210000     -34.06060000     -70.25050000
H      -46.12620000     -34.43570000     -71.24070000
H      -47.13340000     -34.85600000     -69.77190000
C      -45.36580000     -33.76700000     -69.36120000
C      -45.49370000     -34.11190000     -68.04370000
C      -43.96160000     -33.38020000     -69.67240000
H      -46.43390000     -34.43290000     -67.58060000
C      -43.21580000     -33.29800000     -68.46900000
C      -43.12230000     -32.97950000     -70.81540000
C      -41.86360000     -32.54770000     -70.44420000
S      -44.02350000     -33.77650000     -66.97860000
S      -41.63360000     -32.67690000     -68.69450000
H      -41.11960000     -32.09180000     -71.04720000
