40
Properties=species:S:1:pos:R:3 #=T CELL(abcABC):=T 1.889726e+02=T 90.00000=T Traj:=T positionsangstrom=T Step:=T 0=T Bead:=T pbc="F F F"
C      -44.22600000     -36.08080000     -74.27920000
C      -44.30150000     -36.33750000     -72.87340000
C      -43.36560000     -35.78510000     -72.03610000
C      -42.24900000     -35.02300000     -72.52330000
C      -42.29180000     -34.66330000     -73.87050000
C      -43.20330000     -35.23310000     -74.72340000
H      -44.96390000     -36.36600000     -75.09160000
H      -43.50580000     -36.01410000     -70.98570000
H      -41.50730000     -33.97000000     -74.26110000
H      -43.07220000     -35.10150000     -75.81970000
C      -41.23970000     -34.46630000     -71.51210000
H      -40.20570000     -34.62170000     -71.88390000
H      -41.29070000     -34.94620000     -70.52360000
C      -45.57810000     -36.89700000     -72.29570000
H      -46.11750000     -37.60460000     -72.90810000
H      -45.49110000     -37.45020000     -71.37940000
S      -41.46320000     -32.66570000     -71.20010000
S      -46.65910000     -35.41270000     -71.72960000
C      -42.92330000     -32.67120000     -70.11700000
H      -42.89740000     -33.51830000     -69.51820000
H      -42.76840000     -31.78320000     -69.56220000
C      -47.04540000     -34.37780000     -73.27760000
H      -48.16700000     -34.51690000     -73.46610000
H      -46.51200000     -34.74130000     -74.15210000
C      -46.72210000     -32.89430000     -72.93540000
H      -45.65290000     -32.92210000     -72.86470000
H      -46.99510000     -32.25630000     -73.76300000
C      -44.22400000     -32.46670000     -70.86240000
H      -44.56360000     -33.32340000     -71.45310000
H      -44.14020000     -31.57180000     -71.59520000
C      -45.38280000     -31.91900000     -69.98220000
C      -45.27100000     -31.45290000     -68.72870000
C      -46.74060000     -31.92660000     -70.46640000
H      -44.40370000     -31.45650000     -68.03380000
C      -47.60980000     -31.36910000     -69.50330000
C      -47.42220000     -32.32060000     -71.69940000
C      -48.80400000     -32.09150000     -71.57670000
S      -46.82140000     -30.92680000     -68.02850000
S      -49.31260000     -31.42620000     -70.02900000
H      -49.51340000     -32.50150000     -72.26810000
