40
Properties=species:S:1:pos:R:3 #=T CELL(abcABC):=T 1.889726e+02=T 90.00000=T Traj:=T positionsangstrom=T Step:=T 0=T Bead:=T pbc="F F F"
C      -45.52480000     -35.21570000     -74.51460000
C      -45.84430000     -33.91400000     -74.54620000
C      -47.06090000     -33.57390000     -73.96670000
C      -47.90250000     -34.46220000     -73.35400000
C      -47.57920000     -35.81370000     -73.33950000
C      -46.32000000     -36.18740000     -73.85380000
H      -44.55430000     -35.51060000     -74.81410000
H      -47.39080000     -32.54660000     -74.12830000
H      -48.20520000     -36.50090000     -72.88570000
H      -45.95250000     -37.22980000     -73.74000000
C      -49.23900000     -34.15860000     -72.72590000
H      -49.91540000     -35.03110000     -72.77260000
H      -49.58640000     -33.36090000     -73.31200000
C      -44.88060000     -32.89330000     -75.18260000
H      -43.89810000     -33.31990000     -75.31290000
H      -45.23950000     -32.67080000     -76.22500000
S      -49.07210000     -33.69700000     -70.93180000
S      -44.94610000     -31.32840000     -74.22850000
C      -47.33500000     -33.21860000     -70.46640000
H      -46.79680000     -32.78570000     -71.37270000
H      -47.44460000     -32.46600000     -69.73020000
C      -43.67990000     -31.57950000     -72.92230000
H      -43.63590000     -30.65320000     -72.38150000
H      -42.73470000     -31.77210000     -73.41780000
C      -44.07490000     -32.80140000     -72.11650000
H      -45.16600000     -32.68440000     -72.05570000
H      -43.91410000     -33.70990000     -72.67290000
C      -46.37830000     -34.32580000     -69.89880000
H      -45.97350000     -34.89550000     -70.75880000
H      -47.03390000     -35.04790000     -69.42990000
C      -45.24420000     -33.91230000     -69.03520000
C      -45.29640000     -34.12430000     -67.74040000
C      -44.01090000     -33.25070000     -69.54750000
H      -46.18260000     -34.58240000     -67.28300000
C      -43.20320000     -32.98440000     -68.48990000
C      -43.40380000     -32.84220000     -70.78180000
C      -42.14980000     -32.30640000     -70.58110000
S      -43.86460000     -33.49270000     -66.91020000
S      -41.69500000     -32.32120000     -68.86210000
H      -41.53450000     -31.82770000     -71.35510000
