40
Properties=species:S:1:pos:R:3 #=T CELL(abcABC):=T 1.889726e+02=T 90.00000=T Traj:=T positionsangstrom=T Step:=T 0=T Bead:=T pbc="F F F"
C      -44.44400000     -36.16980000     -73.76510000
C      -44.49260000     -36.39280000     -72.39060000
C      -43.64030000     -35.80480000     -71.49640000
C      -42.57660000     -35.08710000     -72.04720000
C      -42.41880000     -34.89350000     -73.44680000
C      -43.36690000     -35.45040000     -74.30890000
H      -45.23180000     -36.70830000     -74.29110000
H      -43.65410000     -35.83420000     -70.39140000
H      -41.58310000     -34.33550000     -73.73550000
H      -43.39350000     -35.19400000     -75.33370000
C      -41.47810000     -34.53760000     -71.11830000
H      -40.53030000     -35.08200000     -71.20250000
H      -41.76300000     -34.70870000     -70.09780000
C      -45.69010000     -37.15690000     -71.92120000
H      -46.04350000     -37.87890000     -72.62620000
H      -45.46370000     -37.71460000     -70.97820000
S      -41.15710000     -32.72400000     -71.30860000
S      -47.13300000     -35.96980000     -71.45730000
C      -42.65940000     -31.95610000     -70.51580000
H      -42.90580000     -32.57320000     -69.72280000
H      -42.26590000     -30.99620000     -70.13890000
C      -47.33980000     -34.88170000     -72.98230000
H      -48.42020000     -34.69810000     -73.20010000
H      -46.95970000     -35.40190000     -73.78210000
C      -46.66670000     -33.47270000     -72.76720000
H      -45.58730000     -33.53190000     -72.64380000
H      -46.76210000     -32.84760000     -73.61670000
C      -44.03040000     -31.80390000     -71.39120000
H      -44.06370000     -32.74230000     -71.85150000
H      -43.88360000     -30.99210000     -72.11120000
C      -45.18700000     -31.42770000     -70.48800000
C      -45.12280000     -30.57290000     -69.45790000
C      -46.57960000     -31.84300000     -70.68930000
H      -44.22280000     -30.09960000     -69.05100000
C      -47.48670000     -31.14500000     -69.88740000
C      -47.26340000     -32.69870000     -71.61260000
C      -48.63220000     -32.72620000     -71.39620000
S      -46.67280000     -30.11050000     -68.79990000
S      -49.10300000     -31.61250000     -70.10030000
H      -49.43040000     -33.26040000     -71.98820000
