40
Properties=species:S:1:pos:R:3 #=T CELL(abcABC):=T 1.889726e+02=T 90.00000=T Traj:=T positionsangstrom=T Step:=T 0=T Bead:=T pbc="F F F"
C      -44.20940000     -36.32860000     -74.03160000
C      -44.51860000     -36.33810000     -72.64080000
C      -43.65240000     -35.68410000     -71.78630000
C      -42.52360000     -35.00740000     -72.19350000
C      -42.18910000     -35.03870000     -73.53660000
C      -43.11950000     -35.65290000     -74.45690000
H      -44.75270000     -36.89720000     -74.69550000
H      -43.91880000     -35.66080000     -70.69690000
H      -41.30860000     -34.48750000     -73.99370000
H      -42.87630000     -35.75280000     -75.54020000
C      -41.53730000     -34.35920000     -71.25770000
H      -40.50940000     -34.62280000     -71.49050000
H      -41.71520000     -34.66470000     -70.19120000
C      -45.66060000     -37.12860000     -72.07170000
H      -45.99490000     -37.92830000     -72.78020000
H      -45.47950000     -37.56550000     -71.12990000
S      -41.16420000     -32.54120000     -71.16570000
S      -47.06720000     -36.05540000     -71.59580000
C      -42.70430000     -31.99970000     -70.25470000
H      -42.62780000     -32.33690000     -69.17550000
H      -42.58180000     -30.96270000     -70.25810000
C      -47.28850000     -34.83730000     -72.92040000
H      -48.31910000     -34.74440000     -72.97370000
H      -46.96550000     -35.29260000     -73.89060000
C      -46.62470000     -33.52260000     -72.65830000
H      -45.60700000     -33.59950000     -72.40720000
H      -46.58990000     -32.95670000     -73.61210000
C      -44.07010000     -32.31390000     -70.89800000
H      -44.38440000     -33.39370000     -70.92690000
H      -44.10600000     -31.97260000     -71.93600000
C      -45.26700000     -31.58080000     -70.14860000
C      -45.16470000     -30.76400000     -69.10980000
C      -46.63060000     -31.82760000     -70.57870000
H      -44.31950000     -30.38730000     -68.55630000
C      -47.58730000     -31.09440000     -69.83890000
C      -47.32440000     -32.67120000     -71.59510000
C      -48.69610000     -32.58600000     -71.49540000
S      -46.75210000     -30.02080000     -68.71340000
S      -49.21990000     -31.47530000     -70.28020000
H      -49.39410000     -33.16870000     -72.16840000
