40
Properties=species:S:1:pos:R:3 #=T CELL(abcABC):=T 1.889726e+02=T 90.00000=T Traj:=T positionsangstrom=T Step:=T 0=T Bead:=T pbc="F F F"
C      -45.81020000     -30.46330000     -71.34350000
C      -44.77840000     -30.69290000     -72.22330000
C      -45.00140000     -31.64550000     -73.24500000
C      -46.12590000     -32.45390000     -73.33970000
C      -47.03360000     -32.35920000     -72.25200000
C      -46.95620000     -31.30120000     -71.37870000
H      -45.70190000     -29.61160000     -70.64730000
H      -44.08670000     -31.68740000     -74.00150000
H      -47.91490000     -32.97400000     -72.24770000
H      -47.76370000     -31.01920000     -70.64980000
C      -46.43320000     -33.31360000     -74.53780000
H      -45.83910000     -33.11080000     -75.45330000
H      -47.52160000     -33.16110000     -74.78710000
C      -43.53070000     -29.79570000     -72.06530000
H      -43.32330000     -29.29510000     -73.02420000
H      -43.68190000     -28.99460000     -71.29920000
S      -46.11380000     -35.19030000     -74.15690000
S      -42.04530000     -30.85980000     -71.57240000
C      -44.45480000     -34.97750000     -73.47100000
H      -43.71970000     -35.26960000     -74.24970000
H      -44.15280000     -33.99120000     -73.14550000
C      -42.78050000     -31.79920000     -70.16730000
H      -43.63620000     -31.17950000     -69.85460000
H      -42.07870000     -31.73950000     -69.30260000
C      -43.14500000     -33.24270000     -70.44340000
H      -43.39510000     -33.38500000     -71.43050000
H      -42.25100000     -33.72360000     -69.96910000
C      -44.40830000     -35.91720000     -72.28330000
H      -43.34770000     -35.80970000     -71.89310000
H      -44.57880000     -36.93250000     -72.53420000
C      -45.36220000     -35.72280000     -71.14340000
C      -46.55570000     -36.40740000     -71.20940000
C      -45.28260000     -34.75810000     -70.01520000
H      -46.84970000     -37.26510000     -71.81310000
C      -46.41730000     -34.82030000     -69.25940000
C      -44.45150000     -33.61950000     -69.67380000
C      -45.01560000     -32.87860000     -68.62070000
S      -47.58860000     -35.99180000     -69.85690000
S      -46.56550000     -33.55600000     -68.02160000
H      -44.83920000     -31.85180000     -68.38640000
