40
Properties=species:S:1:pos:R:3 #=T CELL(abcABC):=T 1.889726e+02=T 90.00000=T Traj:=T positionsangstrom=T Step:=T 0=T Bead:=T pbc="F F F"
C      -44.54280000     -36.66270000     -73.75500000
C      -44.85670000     -36.64400000     -72.32510000
C      -44.07630000     -35.88830000     -71.46250000
C      -42.87040000     -35.26410000     -71.92650000
C      -42.64050000     -35.33000000     -73.30930000
C      -43.39880000     -36.07700000     -74.21180000
H      -45.16930000     -37.28710000     -74.38030000
H      -44.25090000     -35.82450000     -70.36470000
H      -41.70840000     -34.83710000     -73.70800000
H      -43.12450000     -36.23660000     -75.21670000
C      -41.88430000     -34.58140000     -71.03040000
H      -40.99380000     -35.21030000     -71.10970000
H      -42.20100000     -34.71210000     -70.04170000
C      -46.12430000     -37.40020000     -71.95190000
H      -46.60170000     -38.06090000     -72.68960000
H      -45.89830000     -38.04370000     -71.08800000
S      -41.33110000     -32.91000000     -71.55080000
S      -47.52630000     -36.25630000     -71.33860000
C      -42.48050000     -31.68200000     -70.98150000
H      -42.48100000     -31.66900000     -69.87910000
H      -42.06020000     -30.66260000     -71.28120000
C      -47.55760000     -34.90720000     -72.66910000
H      -48.51950000     -34.46800000     -72.99510000
H      -47.16170000     -35.29320000     -73.57020000
C      -46.68890000     -33.64560000     -72.33820000
H      -45.74240000     -34.06030000     -72.00780000
H      -46.51280000     -33.11070000     -73.25710000
C      -43.92200000     -31.99250000     -71.45970000
H      -44.07800000     -33.04160000     -71.31240000
H      -43.99920000     -31.83840000     -72.56770000
C      -44.98380000     -31.20640000     -70.79480000
C      -44.68950000     -30.09220000     -70.10360000
C      -46.38520000     -31.61600000     -70.66860000
H      -43.73580000     -29.61130000     -70.08900000
C      -47.08410000     -30.90110000     -69.73160000
C      -47.13200000     -32.65020000     -71.32190000
C      -48.51100000     -32.46170000     -71.05180000
S      -46.12360000     -29.52230000     -69.20160000
S      -48.75870000     -31.28380000     -69.79170000
H      -49.32760000     -33.06900000     -71.33560000
