40
Properties=species:S:1:pos:R:3 #=T CELL(abcABC):=T 1.889726e+02=T 90.00000=T Traj:=T positionsangstrom=T Step:=T 0=T Bead:=T pbc="F F F"
C      -44.82860000     -36.96970000     -73.63850000
C      -45.23660000     -36.72350000     -72.32220000
C      -44.29430000     -36.10170000     -71.46490000
C      -42.99920000     -35.77560000     -71.91310000
C      -42.64030000     -36.04860000     -73.25830000
C      -43.61240000     -36.52720000     -74.15100000
H      -45.61820000     -37.29110000     -74.38350000
H      -44.58460000     -35.84980000     -70.45550000
H      -41.66250000     -35.91850000     -73.73320000
H      -43.29020000     -36.64570000     -75.19090000
C      -42.04540000     -34.93870000     -70.99850000
H      -41.27090000     -35.60770000     -70.56480000
H      -42.70710000     -34.70210000     -70.18840000
C      -46.46060000     -37.28560000     -71.84310000
H      -46.97460000     -37.74970000     -72.71360000
H      -46.33350000     -38.09330000     -71.11370000
S      -41.38710000     -33.46550000     -71.82800000
S      -47.58670000     -36.03450000     -70.98890000
C      -42.40030000     -32.13790000     -70.95150000
H      -42.44240000     -32.21190000     -69.88550000
H      -41.80010000     -31.22990000     -71.18480000
C      -47.74470000     -34.74800000     -72.30910000
H      -48.82110000     -34.44000000     -72.33690000
H      -47.46640000     -35.24600000     -73.19270000
C      -46.80540000     -33.56230000     -72.12380000
H      -45.87940000     -34.09430000     -71.73680000
H      -46.58780000     -33.12760000     -73.07970000
C      -43.80320000     -31.98340000     -71.59160000
H      -44.18810000     -33.03080000     -71.68520000
H      -43.66930000     -31.65130000     -72.57530000
C      -44.76430000     -31.14460000     -70.82730000
C      -44.36060000     -30.01330000     -70.24230000
C      -46.21580000     -31.43030000     -70.82910000
H      -43.39800000     -29.54320000     -70.26800000
C      -46.84280000     -30.37860000     -70.08450000
C      -47.22050000     -32.42480000     -71.20660000
C      -48.49990000     -32.15220000     -70.79110000
S      -45.76990000     -29.20320000     -69.48760000
S      -48.56410000     -30.69580000     -69.83980000
H      -49.33570000     -32.83910000     -70.79290000
