40
Properties=species:S:1:pos:R:3 #=T CELL(abcABC):=T 1.889726e+02=T 90.00000=T Traj:=T positionsangstrom=T Step:=T 0=T Bead:=T pbc="F F F"
C      -45.81760000     -36.77450000     -72.56970000
C      -45.54980000     -36.24290000     -71.33860000
C      -44.20310000     -35.96120000     -71.02780000
C      -43.23330000     -35.92100000     -72.04790000
C      -43.53400000     -36.35510000     -73.33720000
C      -44.83540000     -36.84410000     -73.54320000
H      -46.77720000     -37.27270000     -72.70320000
H      -43.94960000     -35.52690000     -70.07430000
H      -42.76660000     -36.37420000     -74.14150000
H      -45.14620000     -37.31380000     -74.53220000
C      -41.88130000     -35.44850000     -71.58620000
H      -41.06180000     -36.25230000     -71.76320000
H      -41.71430000     -35.20330000     -70.56900000
C      -46.49510000     -36.34020000     -70.06900000
H      -46.90020000     -37.33630000     -69.93780000
H      -45.86510000     -36.01050000     -69.12680000
S      -41.32970000     -33.98490000     -72.51800000
S      -48.00660000     -35.19620000     -70.24960000
C      -42.20740000     -32.67790000     -71.57580000
H      -42.36650000     -33.02500000     -70.58750000
H      -41.49040000     -31.77070000     -71.51600000
C      -48.01090000     -34.59190000     -72.02710000
H      -49.02090000     -34.28880000     -72.13080000
H      -47.86970000     -35.41170000     -72.71660000
C      -47.00860000     -33.51050000     -72.50860000
H      -46.04290000     -33.94070000     -72.47720000
H      -47.31460000     -33.31420000     -73.58170000
C      -43.62570000     -32.38250000     -72.11710000
H      -44.07240000     -33.29030000     -72.42790000
H      -43.39840000     -31.90310000     -73.07380000
C      -44.47960000     -31.46160000     -71.24250000
C      -43.91850000     -30.51140000     -70.44760000
C      -45.98360000     -31.52600000     -71.13130000
H      -42.91440000     -30.39790000     -70.14230000
C      -46.38380000     -30.50970000     -70.28270000
C      -47.09510000     -32.18070000     -71.79580000
C      -48.26910000     -31.65570000     -71.34770000
S      -45.09780000     -29.59850000     -69.47130000
S      -48.15400000     -30.37460000     -70.17170000
H      -49.31820000     -31.87940000     -71.67500000
