40
Properties=species:S:1:pos:R:3 #=T CELL(abcABC):=T 1.889726e+02=T 90.00000=T Traj:=T positionsangstrom=T Step:=T 0=T Bead:=T pbc="F F F"
C      -44.96820000     -37.17890000     -73.59370000
C      -45.31870000     -36.86730000     -72.29490000
C      -44.45530000     -36.12520000     -71.49540000
C      -43.23430000     -35.74610000     -72.01070000
C      -42.88990000     -36.01710000     -73.36810000
C      -43.70920000     -36.76060000     -74.14720000
H      -45.54990000     -37.88760000     -74.20140000
H      -44.68730000     -36.00470000     -70.42270000
H      -42.00540000     -35.45870000     -73.75670000
H      -43.37890000     -37.00030000     -75.16260000
C      -42.17240000     -35.07080000     -71.13650000
H      -41.28600000     -35.68120000     -71.01800000
H      -42.48730000     -34.81390000     -70.09530000
C      -46.62340000     -37.29370000     -71.65230000
H      -47.30800000     -37.63790000     -72.46010000
H      -46.40900000     -38.12710000     -71.00510000
S      -41.33080000     -33.52780000     -71.86340000
S      -47.50610000     -35.97170000     -70.78380000
C      -42.45750000     -32.20290000     -71.19120000
H      -42.47460000     -32.40000000     -70.13740000
H      -41.83140000     -31.32330000     -71.41270000
C      -47.81860000     -34.66510000     -72.08190000
H      -48.85680000     -34.27600000     -72.02470000
H      -47.70710000     -35.18640000     -73.06790000
C      -46.77950000     -33.47650000     -72.07250000
H      -45.79060000     -33.87940000     -71.56890000
H      -46.58420000     -33.28280000     -73.11220000
C      -43.85590000     -32.02230000     -71.74790000
H      -44.23410000     -33.02720000     -71.83770000
H      -43.83120000     -31.62690000     -72.83960000
C      -44.72020000     -31.17560000     -70.88260000
C      -44.28290000     -30.11470000     -70.20420000
C      -46.16380000     -31.29250000     -70.87540000
H      -43.30320000     -29.76380000     -69.96360000
C      -46.75950000     -30.29300000     -70.10060000
C      -47.15770000     -32.26860000     -71.26210000
C      -48.40210000     -32.00250000     -70.82120000
S      -45.58900000     -29.29410000     -69.36990000
S      -48.48080000     -30.49500000     -69.98490000
H      -49.21410000     -32.69390000     -70.85490000
