40
Properties=species:S:1:pos:R:3 #=T CELL(abcABC):=T 1.889726e+02=T 90.00000=T Traj:=T positionsangstrom=T Step:=T 0=T Bead:=T pbc="F F F"
C      -45.50880000     -36.57920000     -73.81790000
C      -45.75260000     -35.31070000     -74.24550000
C      -46.80900000     -34.70210000     -73.66160000
C      -47.65460000     -35.29230000     -72.73940000
C      -47.38100000     -36.55650000     -72.22860000
C      -46.24140000     -37.22470000     -72.80040000
H      -44.66200000     -37.09420000     -74.13970000
H      -47.00430000     -33.71960000     -74.00320000
H      -47.96140000     -37.00310000     -71.45360000
H      -45.78150000     -38.21570000     -72.50910000
C      -48.79450000     -34.51290000     -72.29160000
H      -49.78370000     -34.84530000     -72.63220000
H      -48.75370000     -33.49340000     -72.61900000
C      -44.86520000     -34.82420000     -75.42450000
H      -44.11160000     -35.55080000     -75.63580000
H      -45.50380000     -34.68990000     -76.33420000
S      -48.84650000     -34.54300000     -70.42450000
S      -44.06020000     -33.21790000     -74.97530000
C      -47.47150000     -33.44030000     -69.91950000
H      -47.41800000     -32.54960000     -70.54760000
H      -47.69310000     -33.10210000     -68.91290000
C      -43.81280000     -33.25500000     -73.15730000
H      -42.81870000     -33.07710000     -72.91410000
H      -44.06100000     -34.26440000     -72.91250000
C      -44.73910000     -32.27980000     -72.31670000
H      -45.01070000     -31.50710000     -72.98430000
H      -45.75800000     -32.70930000     -72.09940000
C      -46.10320000     -34.07600000     -69.78370000
H      -45.70290000     -34.40810000     -70.74150000
H      -46.16500000     -35.00210000     -69.13390000
C      -45.14120000     -33.01260000     -69.08730000
C      -45.00940000     -32.94220000     -67.70520000
C      -44.31670000     -32.01950000     -69.73910000
H      -45.56310000     -33.52660000     -66.99240000
C      -43.55020000     -31.25140000     -68.83870000
C      -43.99090000     -31.69270000     -71.11170000
C      -42.95010000     -30.78980000     -71.21610000
S      -43.81690000     -31.76160000     -67.20770000
S      -42.46000000     -30.22240000     -69.59640000
H      -42.45820000     -30.46560000     -72.12620000
