40
Properties=species:S:1:pos:R:3 #=T CELL(abcABC):=T 1.889726e+02=T 90.00000=T Traj:=T positionsangstrom=T Step:=T 0=T Bead:=T pbc="F F F"
C      -45.50810000     -36.75260000     -73.90120000
C      -45.65430000     -35.50350000     -74.44430000
C      -46.77880000     -34.78850000     -73.95680000
C      -47.60210000     -35.20870000     -72.92760000
C      -47.36360000     -36.48180000     -72.33120000
C      -46.33460000     -37.25960000     -72.86770000
H      -44.79390000     -37.38650000     -74.41460000
H      -46.94640000     -33.78030000     -74.38930000
H      -48.11150000     -36.76060000     -71.60950000
H      -46.18430000     -38.32130000     -72.64410000
C      -48.60450000     -34.29150000     -72.20250000
H      -49.65250000     -34.34530000     -72.62970000
H      -48.28400000     -33.24750000     -72.40160000
C      -44.72420000     -34.87640000     -75.45500000
H      -43.84700000     -35.51430000     -75.59680000
H      -45.06450000     -34.66380000     -76.47680000
S      -48.75540000     -34.55010000     -70.34700000
S      -44.26080000     -33.19790000     -74.94580000
C      -47.47240000     -33.43980000     -69.65020000
H      -47.50060000     -32.41790000     -70.11020000
H      -47.83270000     -33.23780000     -68.63260000
C      -43.79820000     -33.32100000     -73.15620000
H      -42.65890000     -33.19840000     -73.03860000
H      -44.03620000     -34.30560000     -72.75910000
C      -44.56870000     -32.17700000     -72.41090000
H      -44.49650000     -31.25510000     -72.99820000
H      -45.62800000     -32.50330000     -72.33040000
C      -46.11160000     -34.07170000     -69.70870000
H      -45.97400000     -34.24940000     -70.74810000
H      -46.19480000     -35.07990000     -69.26170000
C      -45.00800000     -33.16780000     -69.07840000
C      -44.95110000     -33.07290000     -67.68990000
C      -44.26340000     -32.14130000     -69.77650000
H      -45.47480000     -33.73450000     -67.12530000
C      -43.55040000     -31.37850000     -68.87200000
C      -43.94220000     -31.74120000     -71.12210000
C      -43.14480000     -30.62180000     -71.10000000
S      -43.96090000     -31.70020000     -67.13470000
S      -42.49370000     -30.13350000     -69.54800000
H      -42.86870000     -30.05720000     -72.03730000
