40
Properties=species:S:1:pos:R:3 #=T CELL(abcABC):=T 1.889726e+02=T 90.00000=T Traj:=T positionsangstrom=T Step:=T 0=T Bead:=T pbc="F F F"
C      -45.83290000     -37.24110000     -72.07530000
C      -45.53190000     -36.40820000     -70.96320000
C      -44.29580000     -35.85290000     -70.77490000
C      -43.23930000     -36.05090000     -71.69140000
C      -43.50800000     -36.77590000     -72.85330000
C      -44.78660000     -37.34890000     -72.99050000
H      -46.82950000     -37.72920000     -72.21540000
H      -44.18740000     -35.24250000     -69.87840000
H      -42.73890000     -36.88680000     -73.60150000
H      -44.97440000     -37.92890000     -73.85580000
C      -41.86400000     -35.37610000     -71.53670000
H      -41.00920000     -36.12350000     -71.63210000
H      -41.73080000     -34.88520000     -70.59610000
C      -46.63920000     -36.25960000     -69.97740000
H      -47.07450000     -37.31440000     -69.80090000
H      -46.15990000     -35.82540000     -69.05480000
S      -41.53890000     -34.11060000     -72.86140000
S      -48.11540000     -35.22530000     -70.39920000
C      -42.22810000     -32.50980000     -72.25920000
H      -41.51080000     -32.09710000     -71.49570000
H      -42.25620000     -31.91240000     -73.11560000
C      -47.93630000     -34.54550000     -72.09170000
H      -48.80660000     -34.03150000     -72.38290000
H      -47.93930000     -35.39800000     -72.82990000
C      -46.77320000     -33.49580000     -72.36540000
H      -45.82550000     -33.98080000     -72.16450000
H      -46.89010000     -33.23260000     -73.51360000
C      -43.62840000     -32.61580000     -71.87790000
H      -43.69690000     -33.45640000     -71.21940000
H      -44.12040000     -32.94210000     -72.79280000
C      -44.47320000     -31.39900000     -71.19510000
C      -43.89620000     -30.35900000     -70.57760000
C      -45.89320000     -31.39470000     -71.04290000
H      -42.80470000     -30.19080000     -70.36130000
C      -46.35630000     -30.24890000     -70.34450000
C      -46.95240000     -32.21050000     -71.54530000
C      -48.21560000     -31.67130000     -71.31190000
S      -45.05090000     -29.25050000     -69.74880000
S      -48.07460000     -30.21350000     -70.38130000
H      -49.07050000     -32.25290000     -71.53020000
