40
Properties=species:S:1:pos:R:3 #=T CELL(abcABC):=T 1.889726e+02=T 90.00000=T Traj:=T positionsangstrom=T Step:=T 0=T Bead:=T pbc="F F F"
C      -45.62000000     -36.94740000     -73.88220000
C      -45.56370000     -35.54650000     -74.02500000
C      -46.63880000     -34.78130000     -73.48160000
C      -47.75030000     -35.41840000     -72.86910000
C      -47.74850000     -36.80360000     -72.59260000
C      -46.62260000     -37.50750000     -73.03320000
H      -44.79100000     -37.51410000     -74.21390000
H      -46.73750000     -33.75630000     -73.66620000
H      -48.59340000     -37.21000000     -72.11020000
H      -46.63570000     -38.61770000     -72.79990000
C      -48.88340000     -34.61480000     -72.41040000
H      -49.81950000     -35.09100000     -72.80330000
H      -48.69900000     -33.57820000     -72.68570000
C      -44.40080000     -34.94160000     -74.76980000
H      -43.55710000     -35.33550000     -74.20980000
H      -44.36440000     -35.34730000     -75.80950000
S      -48.83380000     -34.62790000     -70.51760000
S      -44.37780000     -33.05390000     -74.82640000
C      -47.52150000     -33.35490000     -70.21210000
H      -47.44000000     -32.56210000     -70.96110000
H      -47.88680000     -32.83870000     -69.31040000
C      -43.46640000     -32.48070000     -73.28220000
H      -42.65140000     -31.85380000     -73.53170000
H      -43.05650000     -33.38550000     -72.76410000
C      -44.51830000     -31.75700000     -72.49920000
H      -44.82210000     -30.84260000     -73.07820000
H      -45.38330000     -32.43670000     -72.46270000
C      -46.15200000     -33.98100000     -69.87570000
H      -45.66140000     -34.44780000     -70.72830000
H      -46.32220000     -34.78500000     -69.24000000
C      -45.18120000     -33.00320000     -69.25400000
C      -44.94730000     -33.18000000     -67.93540000
C      -44.33460000     -31.91660000     -69.82770000
H      -45.47340000     -33.86010000     -67.32830000
C      -43.53500000     -31.36820000     -68.75440000
C      -43.93710000     -31.37080000     -71.09810000
C      -42.99590000     -30.35390000     -70.98700000
S      -43.73490000     -32.10360000     -67.21710000
S      -42.38760000     -30.18760000     -69.35320000
H      -42.80270000     -29.68440000     -71.80270000
