40
Properties=species:S:1:pos:R:3 #=T CELL(abcABC):=T 1.889726e+02=T 90.00000=T Traj:=T positionsangstrom=T Step:=T 0=T Bead:=T pbc="F F F"
C      -49.01930000     -33.27160000     -71.90670000
C      -47.74590000     -33.82900000     -71.80300000
C      -46.59650000     -33.04170000     -72.14070000
C      -46.72160000     -31.70490000     -72.48130000
C      -48.03190000     -31.14340000     -72.56170000
C      -49.15960000     -31.92800000     -72.37080000
H      -49.92790000     -33.73520000     -71.71790000
H      -45.60090000     -33.44560000     -72.08440000
H      -48.06070000     -30.02710000     -72.83450000
H      -50.08330000     -31.43740000     -72.49180000
C      -45.59920000     -30.71050000     -72.71260000
H      -46.00890000     -30.01830000     -73.41110000
H      -44.62770000     -31.07420000     -73.10630000
C      -47.51420000     -35.22500000     -71.30770000
H      -48.42180000     -35.91010000     -71.54460000
H      -46.56750000     -35.64890000     -71.65310000
S      -45.21330000     -29.72180000     -71.12440000
S      -47.57990000     -35.32630000     -69.43260000
C      -43.57090000     -30.30110000     -70.49490000
H      -42.75200000     -30.19010000     -71.16850000
H      -43.35280000     -29.58880000     -69.74770000
C      -46.46340000     -34.06540000     -68.81510000
H      -46.84430000     -33.69870000     -67.81510000
H      -46.53110000     -33.13780000     -69.51740000
C      -44.93320000     -34.43150000     -68.65900000
H      -44.35280000     -33.52090000     -68.33190000
H      -44.82900000     -35.20770000     -67.83830000
C      -43.46350000     -31.72520000     -70.04040000
H      -44.39140000     -31.95410000     -69.40460000
H      -42.61810000     -31.80640000     -69.39630000
C      -43.35560000     -32.69400000     -71.18200000
C      -42.81260000     -32.41200000     -72.41810000
C      -43.76660000     -34.09150000     -70.98980000
H      -42.47580000     -31.38030000     -72.71230000
C      -43.39270000     -34.81230000     -72.12130000
C      -44.29140000     -34.90850000     -69.96460000
C      -44.33530000     -36.23930000     -70.37590000
S      -42.61570000     -33.90680000     -73.36830000
S      -43.65000000     -36.57200000     -71.93470000
H      -44.60910000     -37.11730000     -69.82520000
