40
Properties=species:S:1:pos:R:3 #=T CELL(abcABC):=T 1.889726e+02=T 90.00000=T Traj:=T positionsangstrom=T Step:=T 0=T Bead:=T pbc="F F F"
C      -45.63960000     -36.54680000     -73.46750000
C      -45.65400000     -35.23320000     -73.93180000
C      -46.79500000     -34.41180000     -73.66020000
C      -47.93400000     -34.93200000     -72.98680000
C      -47.92630000     -36.29630000     -72.52830000
C      -46.77220000     -37.10220000     -72.84110000
H      -44.82000000     -37.22650000     -73.75380000
H      -46.67470000     -33.37570000     -74.01480000
H      -48.85960000     -36.61100000     -72.06150000
H      -46.68070000     -38.18720000     -72.58100000
C      -49.06260000     -34.11670000     -72.48590000
H      -50.02170000     -34.57620000     -72.58310000
H      -49.11900000     -33.09940000     -72.93170000
C      -44.55520000     -34.74670000     -74.83330000
H      -43.61570000     -35.26690000     -74.54840000
H      -44.76340000     -34.93570000     -75.91270000
S      -48.90520000     -34.04800000     -70.51510000
S      -44.35810000     -32.86040000     -74.92020000
C      -47.28060000     -33.15920000     -70.14400000
H      -47.16010000     -32.52530000     -70.97810000
H      -47.40360000     -32.57530000     -69.23830000
C      -43.63120000     -32.52790000     -73.28430000
H      -42.76010000     -31.90690000     -73.43080000
H      -43.22120000     -33.34410000     -72.72580000
C      -44.64060000     -31.79090000     -72.37040000
H      -44.98440000     -30.88520000     -72.91970000
H      -45.56510000     -32.30400000     -72.21480000
C      -46.10440000     -34.10710000     -70.18430000
H      -45.87230000     -34.30150000     -71.26210000
H      -46.33550000     -35.00680000     -69.63670000
C      -45.01300000     -33.47730000     -69.33770000
C      -44.57630000     -33.99330000     -68.14030000
C      -44.27580000     -32.27720000     -69.73690000
H      -44.86100000     -34.90110000     -67.62890000
C      -43.38910000     -31.87210000     -68.72290000
C      -44.07640000     -31.49470000     -70.97870000
C      -43.11580000     -30.54000000     -70.81440000
S      -43.36920000     -32.91920000     -67.37890000
S      -42.44260000     -30.48060000     -69.21340000
H      -42.77210000     -29.81530000     -71.53450000
