40
Properties=species:S:1:pos:R:3 #=T CELL(abcABC):=T 1.889726e+02=T 90.00000=T Traj:=T positionsangstrom=T Step:=T 0=T Bead:=T pbc="F F F"
C      -45.51150000     -36.97840000     -73.57580000
C      -45.52210000     -35.58940000     -73.89300000
C      -46.69520000     -34.86000000     -73.58820000
C      -47.78920000     -35.47760000     -72.95520000
C      -47.86680000     -36.87730000     -72.82520000
C      -46.70050000     -37.62290000     -73.18610000
H      -44.65160000     -37.53610000     -73.75240000
H      -46.83970000     -33.75930000     -73.63410000
H      -48.74190000     -37.26190000     -72.34470000
H      -46.76690000     -38.69920000     -72.92500000
C      -48.91420000     -34.55130000     -72.42560000
H      -49.84050000     -34.97340000     -72.77870000
H      -48.93100000     -33.53100000     -72.80570000
C      -44.20960000     -34.94450000     -74.38660000
H      -43.38750000     -34.93420000     -73.65350000
H      -43.79360000     -35.49240000     -75.22860000
S      -48.87710000     -34.40250000     -70.53560000
S      -44.41670000     -33.16560000     -74.87810000
C      -47.48310000     -33.24400000     -70.19190000
H      -47.61270000     -32.44020000     -70.94770000
H      -47.68730000     -32.82480000     -69.17160000
C      -43.76670000     -32.27990000     -73.38610000
H      -43.14750000     -31.48110000     -73.81570000
H      -43.12380000     -32.96610000     -72.87040000
C      -44.70590000     -31.61720000     -72.36790000
H      -45.17520000     -30.68230000     -72.66140000
H      -45.47210000     -32.30680000     -72.10100000
C      -46.03200000     -33.84830000     -70.21420000
H      -45.68900000     -33.78510000     -71.26910000
H      -45.97520000     -34.91880000     -69.88980000
C      -45.08890000     -33.01300000     -69.32480000
C      -44.94120000     -33.23350000     -67.97170000
C      -44.17860000     -32.05690000     -69.80810000
H      -45.59480000     -33.90780000     -67.39090000
C      -43.43550000     -31.51720000     -68.73680000
C      -43.93150000     -31.37550000     -71.04450000
C      -42.92110000     -30.42590000     -70.94630000
S      -43.74880000     -32.12960000     -67.19640000
S      -42.31970000     -30.26830000     -69.30620000
H      -42.84680000     -29.65880000     -71.74490000
