40
Properties=species:S:1:pos:R:3 #=T CELL(abcABC):=T 1.889726e+02=T 90.00000=T Traj:=T positionsangstrom=T Step:=T 0=T Bead:=T pbc="F F F"
C      -46.78070000     -37.53310000     -72.20190000
C      -46.41020000     -36.63400000     -71.15230000
C      -45.07310000     -36.35290000     -70.85960000
C      -44.03310000     -36.84310000     -71.62380000
C      -44.39520000     -37.70430000     -72.72770000
C      -45.75730000     -37.93810000     -73.02150000
H      -47.83820000     -37.59240000     -72.40470000
H      -44.89660000     -35.70630000     -69.99920000
H      -43.55470000     -38.07110000     -73.33700000
H      -45.95100000     -38.54310000     -73.86810000
C      -42.58050000     -36.50030000     -71.31640000
H      -41.95140000     -37.25690000     -71.77120000
H      -42.49100000     -36.41010000     -70.24550000
C      -47.50940000     -36.15450000     -70.31210000
H      -48.45160000     -36.27490000     -70.74260000
H      -47.66530000     -36.56670000     -69.24380000
S      -41.95700000     -34.94130000     -72.15320000
S      -47.35100000     -34.26670000     -70.15390000
C      -42.40190000     -33.54840000     -70.99650000
H      -42.30240000     -34.00980000     -70.01010000
H      -41.61160000     -32.81940000     -71.05710000
C      -48.03030000     -33.80430000     -71.82880000
H      -48.91190000     -33.24230000     -71.85550000
H      -48.04850000     -34.84390000     -72.27900000
C      -46.93990000     -32.97690000     -72.54240000
H      -46.09850000     -33.56960000     -72.62840000
H      -47.14270000     -32.87640000     -73.61890000
C      -43.82820000     -33.07500000     -71.31630000
H      -44.42820000     -33.87890000     -70.81040000
H      -44.06870000     -33.17320000     -72.40590000
C      -44.25730000     -31.70600000     -70.82660000
C      -43.55850000     -30.79880000     -69.97200000
C      -45.48740000     -31.13000000     -71.26340000
H      -42.72650000     -31.03370000     -69.27810000
C      -45.65220000     -29.77330000     -70.84190000
C      -46.60160000     -31.60290000     -71.97320000
C      -47.59050000     -30.63440000     -72.14270000
S      -44.30000000     -29.21060000     -69.86360000
S      -47.07570000     -29.11310000     -71.55330000
H      -48.53950000     -30.79920000     -72.49870000
