40
Properties=species:S:1:pos:R:3 #=T CELL(abcABC):=T 1.889726e+02=T 90.00000=T Traj:=T positionsangstrom=T Step:=T 0=T Bead:=T pbc="F F F"
C      -45.41960000     -30.97900000     -70.97390000
C      -44.45960000     -30.92500000     -72.04270000
C      -44.81240000     -31.50810000     -73.28390000
C      -46.08010000     -32.05180000     -73.45920000
C      -46.97060000     -32.08810000     -72.35280000
C      -46.68290000     -31.53690000     -71.13990000
H      -45.13880000     -30.43130000     -70.12670000
H      -44.09490000     -31.36860000     -74.13850000
H      -47.91570000     -32.61510000     -72.35010000
H      -47.42060000     -31.54250000     -70.32830000
C      -46.37870000     -32.79630000     -74.73370000
H      -45.70220000     -32.59380000     -75.59710000
H      -47.39630000     -32.77190000     -75.02830000
C      -43.12600000     -30.18830000     -71.73560000
H      -42.82230000     -29.61430000     -72.63140000
H      -43.30930000     -29.42120000     -71.00560000
S      -46.21410000     -34.66590000     -74.34130000
S      -41.71990000     -31.35480000     -71.27710000
C      -44.57300000     -34.87330000     -73.61670000
H      -43.72330000     -35.27260000     -74.19960000
H      -44.31630000     -33.89310000     -73.25440000
C      -42.50860000     -32.10270000     -69.76450000
H      -43.18610000     -31.43150000     -69.20500000
H      -41.62710000     -32.25110000     -69.05990000
C      -43.15400000     -33.53030000     -70.08700000
H      -43.22880000     -33.54770000     -71.14870000
H      -42.52630000     -34.46100000     -69.87560000
C      -44.64260000     -35.86300000     -72.49950000
H      -43.59680000     -35.99470000     -72.10050000
H      -44.89740000     -36.87990000     -72.80860000
C      -45.62320000     -35.54150000     -71.40930000
C      -46.77200000     -36.25190000     -71.35590000
C      -45.53790000     -34.58960000     -70.27800000
H      -46.99580000     -37.06270000     -72.00080000
C      -46.74840000     -34.56290000     -69.54360000
C      -44.54040000     -33.78430000     -69.54260000
C      -45.02890000     -33.20600000     -68.38640000
S      -47.88280000     -35.78780000     -70.08230000
S      -46.74850000     -33.63050000     -68.14420000
H      -44.53960000     -32.39610000     -67.85480000
