40
Properties=species:S:1:pos:R:3 #=T CELL(abcABC):=T 1.889726e+02=T 90.00000=T Traj:=T positionsangstrom=T Step:=T 0=T Bead:=T pbc="F F F"
C      -47.38880000     -36.41300000     -72.68770000
C      -47.15710000     -35.94510000     -71.40770000
C      -45.89050000     -36.12760000     -70.83920000
C      -44.87440000     -36.85520000     -71.49520000
C      -45.19110000     -37.45350000     -72.71950000
C      -46.42580000     -37.27800000     -73.33070000
H      -48.36850000     -36.22920000     -73.08100000
H      -45.61190000     -35.64720000     -69.92820000
H      -44.42420000     -38.11590000     -73.14140000
H      -46.61740000     -37.63040000     -74.28850000
C      -43.44440000     -37.00250000     -71.02650000
H      -43.14630000     -38.07430000     -71.06540000
H      -43.28260000     -36.79750000     -69.94550000
C      -48.25310000     -35.13760000     -70.65780000
H      -49.24470000     -35.57490000     -70.79320000
H      -48.05040000     -35.07820000     -69.58060000
S      -42.20610000     -35.95720000     -71.83960000
S      -48.49400000     -33.26830000     -70.97790000
C      -42.42550000     -34.44540000     -70.82700000
H      -42.51550000     -34.79310000     -69.79180000
H      -41.47560000     -33.84240000     -70.91570000
C      -47.93500000     -33.01300000     -72.70990000
H      -48.31290000     -32.14490000     -73.17840000
H      -48.08760000     -33.98840000     -73.31220000
C      -46.39260000     -32.68380000     -72.70940000
H      -45.81160000     -33.51280000     -72.31640000
H      -46.04610000     -32.72100000     -73.76800000
C      -43.66040000     -33.62030000     -71.37050000
H      -44.58570000     -34.28540000     -71.28040000
H      -43.45360000     -33.51580000     -72.41070000
C      -43.80780000     -32.20740000     -70.81150000
C      -42.95460000     -31.71810000     -69.82120000
C      -44.82290000     -31.25260000     -71.25250000
H      -41.99750000     -32.12270000     -69.48230000
C      -44.73910000     -30.05920000     -70.56340000
C      -46.06000000     -31.45360000     -71.92770000
C      -46.73730000     -30.26840000     -71.98560000
S      -43.40490000     -30.01190000     -69.41790000
S      -46.03860000     -29.04010000     -70.94220000
H      -47.65720000     -30.03430000     -72.56800000
