40
Properties=species:S:1:pos:R:3 #=T CELL(abcABC):=T 1.889726e+02=T 90.00000=T Traj:=T positionsangstrom=T Step:=T 0=T Bead:=T pbc="F F F"
C      -47.42230000     -36.42450000     -72.71710000
C      -47.20200000     -35.88320000     -71.45930000
C      -45.96710000     -36.15140000     -70.84750000
C      -44.97740000     -36.82760000     -71.48320000
C      -45.20010000     -37.38540000     -72.73970000
C      -46.43360000     -37.14770000     -73.40000000
H      -48.38310000     -36.19500000     -73.16950000
H      -45.73840000     -35.70640000     -69.83920000
H      -44.34680000     -37.90650000     -73.18640000
H      -46.60760000     -37.59640000     -74.38980000
C      -43.65380000     -37.12030000     -70.79510000
H      -43.43990000     -38.16400000     -70.90350000
H      -43.64260000     -36.77330000     -69.76600000
C      -48.25310000     -35.18680000     -70.66730000
H      -49.14700000     -35.82070000     -70.70380000
H      -47.89580000     -35.05980000     -69.65760000
S      -42.41950000     -36.15040000     -71.80480000
S      -48.65080000     -33.36050000     -71.17480000
C      -42.29690000     -34.45270000     -71.00340000
H      -42.22890000     -34.61360000     -69.96470000
H      -41.32010000     -33.98890000     -71.35130000
C      -47.90720000     -32.85690000     -72.78480000
H      -48.52830000     -32.05380000     -73.12990000
H      -48.15860000     -33.67780000     -73.50890000
C      -46.40420000     -32.55810000     -72.74300000
H      -45.91840000     -33.42220000     -72.34100000
H      -46.04040000     -32.32050000     -73.73650000
C      -43.54910000     -33.59770000     -71.43290000
H      -44.46800000     -34.20410000     -71.26780000
H      -43.36570000     -33.44340000     -72.50630000
C      -43.66240000     -32.23910000     -70.74910000
C      -42.83150000     -31.58520000     -69.82120000
C      -44.80440000     -31.33930000     -71.06010000
H      -41.86140000     -31.97080000     -69.43930000
C      -44.67480000     -30.07660000     -70.49680000
C      -46.00890000     -31.45300000     -71.83230000
C      -46.62800000     -30.23740000     -71.91570000
S      -43.22020000     -29.96980000     -69.36540000
S      -45.95830000     -28.98250000     -70.89190000
H      -47.62600000     -30.18720000     -72.41850000
