40
Properties=species:S:1:pos:R:3 #=T CELL(abcABC):=T 1.889726e+02=T 90.00000=T Traj:=T positionsangstrom=T Step:=T 0=T Bead:=T pbc="F F F"
C      -46.88240000     -36.95600000     -72.46190000
C      -46.57880000     -36.34940000     -71.21280000
C      -45.27820000     -36.37820000     -70.69450000
C      -44.25840000     -36.92660000     -71.49810000
C      -44.58920000     -37.52590000     -72.74970000
C      -45.90140000     -37.53330000     -73.22410000
H      -47.87720000     -36.88070000     -72.85630000
H      -45.01020000     -36.02260000     -69.72310000
H      -43.82660000     -38.00010000     -73.35920000
H      -46.13920000     -38.13500000     -74.06020000
C      -42.92820000     -36.82260000     -70.90380000
H      -42.27680000     -37.67550000     -71.10760000
H      -43.00640000     -36.56520000     -69.83400000
C      -47.66740000     -35.69950000     -70.42980000
H      -48.61020000     -35.97690000     -70.77740000
H      -47.73750000     -35.84760000     -69.34430000
S      -41.87040000     -35.46040000     -71.70850000
S      -47.63320000     -33.84580000     -70.51730000
C      -42.61070000     -33.88890000     -70.98680000
H      -42.73150000     -33.96980000     -69.91180000
H      -41.91760000     -33.19380000     -71.19400000
C      -48.15550000     -33.42090000     -72.25770000
H      -49.11730000     -32.90860000     -72.10770000
H      -48.23390000     -34.34420000     -72.88160000
C      -47.16180000     -32.46530000     -72.94930000
H      -46.24090000     -33.13080000     -73.12790000
H      -47.48520000     -32.11050000     -73.95050000
C      -43.97930000     -33.45520000     -71.52880000
H      -44.71120000     -34.20380000     -71.33230000
H      -44.04930000     -33.35030000     -72.60360000
C      -44.26950000     -32.10600000     -70.94610000
C      -43.43360000     -31.44780000     -70.06020000
C      -45.42060000     -31.25360000     -71.28850000
H      -42.67390000     -31.81750000     -69.46000000
C      -45.29030000     -29.95210000     -70.85150000
C      -46.64050000     -31.27600000     -72.14480000
C      -47.36290000     -30.14310000     -72.16750000
S      -43.87210000     -29.79420000     -69.75460000
S      -46.63330000     -28.93030000     -71.13710000
H      -48.36720000     -29.89080000     -72.59220000
