40
Properties=species:S:1:pos:R:3 #=T CELL(abcABC):=T 1.889726e+02=T 90.00000=T Traj:=T positionsangstrom=T Step:=T 0=T Bead:=T pbc="F F F"
C      -45.36960000     -35.98990000     -73.93280000
C      -45.78420000     -34.65350000     -74.13530000
C      -46.94120000     -34.21580000     -73.53460000
C      -47.72270000     -35.03740000     -72.72260000
C      -47.22280000     -36.30170000     -72.41880000
C      -46.15790000     -36.86390000     -73.17910000
H      -44.49000000     -36.36280000     -74.39670000
H      -47.40130000     -33.21530000     -73.64470000
H      -47.80230000     -36.97920000     -71.83760000
H      -45.82320000     -37.84000000     -73.09550000
C      -48.90700000     -34.49000000     -71.97410000
H      -49.88630000     -34.78630000     -72.43930000
H      -49.00120000     -33.45280000     -72.15950000
C      -45.12420000     -33.91420000     -75.27700000
H      -44.05710000     -34.21420000     -75.32240000
H      -45.65200000     -34.10120000     -76.18130000
S      -48.79920000     -34.98590000     -70.28330000
S      -45.17020000     -32.06650000     -75.02990000
C      -47.10090000     -34.66790000     -69.71390000
H      -47.00740000     -35.12140000     -68.71390000
H      -46.34000000     -35.19310000     -70.33070000
C      -44.04430000     -31.77300000     -73.54850000
H      -43.57640000     -30.81040000     -73.74480000
H      -43.25590000     -32.42130000     -73.39770000
C      -44.80090000     -31.55300000     -72.24330000
H      -45.23220000     -30.56040000     -72.33310000
H      -45.64330000     -32.23260000     -72.11230000
C      -46.66940000     -33.16670000     -69.73890000
H      -47.45560000     -32.64540000     -69.10950000
H      -46.74560000     -32.87990000     -70.75000000
C      -45.33770000     -32.89100000     -69.12710000
C      -45.09890000     -33.31200000     -67.85930000
C      -44.23670000     -32.13360000     -69.70980000
H      -45.87440000     -33.73460000     -67.21030000
C      -43.18460000     -32.05430000     -68.81850000
C      -43.88500000     -31.51820000     -71.01620000
C      -42.56910000     -31.13570000     -71.07510000
S      -43.48640000     -32.91100000     -67.34120000
S      -41.66580000     -31.57090000     -69.57370000
H      -42.16180000     -30.48360000     -71.85120000
