40
Properties=species:S:1:pos:R:3 #=T CELL(abcABC):=T 1.889726e+02=T 90.00000=T Traj:=T positionsangstrom=T Step:=T 0=T Bead:=T pbc="F F F"
C      -47.55810000     -36.32460000     -72.71270000
C      -47.34130000     -35.79200000     -71.40220000
C      -46.04970000     -35.97060000     -70.91450000
C      -45.05290000     -36.72560000     -71.54410000
C      -45.38980000     -37.35360000     -72.74770000
C      -46.65960000     -37.15060000     -73.36540000
H      -48.50810000     -36.18840000     -73.19220000
H      -45.83430000     -35.63760000     -69.86480000
H      -44.66520000     -38.04150000     -73.16690000
H      -46.95240000     -37.67370000     -74.36530000
C      -43.75710000     -36.91320000     -70.82010000
H      -43.50430000     -37.97230000     -70.67780000
H      -43.87800000     -36.44380000     -69.82340000
C      -48.43530000     -35.03870000     -70.70590000
H      -49.37930000     -35.57490000     -70.88400000
H      -48.27460000     -35.00450000     -69.60140000
S      -42.26280000     -36.19550000     -71.63330000
S      -48.80960000     -33.30350000     -71.30760000
C      -42.20250000     -34.44830000     -71.00740000
H      -42.09660000     -34.47130000     -69.87810000
H      -41.34970000     -33.85530000     -71.33190000
C      -47.81440000     -33.02310000     -72.88030000
H      -48.39040000     -32.18360000     -73.30470000
H      -47.89720000     -33.86950000     -73.57890000
C      -46.34000000     -32.60930000     -72.66300000
H      -45.87600000     -33.54180000     -72.33040000
H      -45.95910000     -32.33200000     -73.65650000
C      -43.53430000     -33.74850000     -71.36860000
H      -44.31740000     -34.23640000     -70.92370000
H      -43.87700000     -33.74380000     -72.42760000
C      -43.66300000     -32.30040000     -70.83700000
C      -42.62650000     -31.72800000     -70.04680000
C      -44.76300000     -31.38510000     -71.01810000
H      -41.74250000     -32.19190000     -69.71810000
C      -44.60670000     -30.13380000     -70.41560000
C      -45.92930000     -31.40100000     -71.82290000
C      -46.60790000     -30.18930000     -71.83100000
S      -43.10850000     -30.05070000     -69.48050000
S      -45.85490000     -29.02330000     -70.76640000
H      -47.57920000     -30.06530000     -72.27510000
