40
Properties=species:S:1:pos:R:3 #=T CELL(abcABC):=T 1.889726e+02=T 90.00000=T Traj:=T positionsangstrom=T Step:=T 0=T Bead:=T pbc="F F F"
C      -45.10710000     -35.89850000     -74.36730000
C      -45.69960000     -34.63420000     -74.34430000
C      -46.93140000     -34.49390000     -73.74330000
C      -47.55270000     -35.56690000     -73.08530000
C      -46.92320000     -36.81950000     -73.04010000
C      -45.74110000     -37.02310000     -73.70510000
H      -44.19230000     -36.06600000     -74.80110000
H      -47.37030000     -33.50190000     -73.78680000
H      -47.40250000     -37.60340000     -72.45090000
H      -45.19800000     -38.03340000     -73.91920000
C      -48.81660000     -35.32570000     -72.24070000
H      -49.52350000     -36.14000000     -72.47940000
H      -49.25210000     -34.32070000     -72.53570000
C      -44.89080000     -33.54830000     -75.05180000
H      -43.81160000     -33.68440000     -75.03000000
H      -45.08740000     -33.59600000     -76.10880000
S      -48.43210000     -35.39080000     -70.41430000
S      -45.31250000     -31.87130000     -74.59070000
C      -46.69740000     -34.79420000     -70.19160000
H      -46.37780000     -35.12830000     -69.22230000
H      -46.07440000     -35.21490000     -70.96890000
C      -44.40170000     -31.58010000     -73.05530000
H      -45.10410000     -31.09270000     -72.33120000
H      -43.61400000     -30.82080000     -73.31270000
C      -43.87450000     -32.80210000     -72.24080000
H      -44.69820000     -33.47730000     -72.12630000
H      -43.10700000     -33.40360000     -72.72630000
C      -46.57470000     -33.20460000     -70.32030000
H      -47.54430000     -32.85760000     -70.04120000
H      -46.34960000     -32.86530000     -71.34410000
C      -45.52540000     -32.63790000     -69.33540000
C      -45.86300000     -32.34670000     -68.01020000
C      -44.19060000     -32.26590000     -69.64140000
H      -46.83990000     -32.35450000     -67.43210000
C      -43.48180000     -31.71190000     -68.57220000
C      -43.40380000     -32.34160000     -70.85280000
C      -42.12190000     -31.86030000     -70.68610000
S      -44.57250000     -31.61280000     -67.13690000
S      -41.82900000     -31.31510000     -69.05710000
H      -41.38420000     -31.70430000     -71.45520000
