40
Properties=species:S:1:pos:R:3 #=T CELL(abcABC):=T 1.889726e+02=T 90.00000=T Traj:=T positionsangstrom=T Step:=T 0=T Bead:=T pbc="F F F"
C      -44.99010000     -35.69830000     -74.37760000
C      -45.82830000     -34.59950000     -74.60140000
C      -46.96530000     -34.48940000     -73.74780000
C      -47.36810000     -35.51340000     -72.89330000
C      -46.47020000     -36.60510000     -72.69920000
C      -45.26280000     -36.65800000     -73.43100000
H      -44.02980000     -35.84140000     -74.93670000
H      -47.51310000     -33.56470000     -73.75680000
H      -46.68670000     -37.26790000     -71.84330000
H      -44.71200000     -37.53410000     -73.30770000
C      -48.63000000     -35.33350000     -72.16770000
H      -49.28430000     -36.17490000     -72.31900000
H      -49.13160000     -34.42900000     -72.37900000
C      -45.38000000     -33.48790000     -75.52300000
H      -44.33160000     -33.69450000     -75.92550000
H      -46.05410000     -33.32890000     -76.30720000
S      -48.45590000     -35.43170000     -70.21980000
S      -45.51640000     -31.73060000     -74.75900000
C      -46.81130000     -34.59180000     -69.92330000
H      -46.41160000     -35.07690000     -68.95670000
H      -46.06560000     -34.76110000     -70.74020000
C      -44.16660000     -31.68670000     -73.46480000
H      -44.12240000     -30.68630000     -73.14450000
H      -43.19160000     -31.93400000     -73.90840000
C      -44.44420000     -32.72300000     -72.29920000
H      -45.50160000     -32.95430000     -72.14340000
H      -44.08800000     -33.74210000     -72.56690000
C      -46.91510000     -33.07540000     -69.70420000
H      -47.64600000     -32.96950000     -68.91880000
H      -47.20970000     -32.51640000     -70.60710000
C      -45.64360000     -32.50830000     -69.06360000
C      -45.67600000     -32.12700000     -67.74710000
C      -44.31340000     -32.25940000     -69.64110000
H      -46.57280000     -32.21690000     -67.17750000
C      -43.36170000     -31.88710000     -68.68150000
C      -43.75000000     -32.40670000     -71.01690000
C      -42.36660000     -32.24750000     -70.96610000
S      -44.13830000     -31.69050000     -67.11180000
S      -41.78870000     -31.72260000     -69.34830000
H      -41.73040000     -32.32280000     -71.87750000
