40
Properties=species:S:1:pos:R:3 #=T CELL(abcABC):=T 1.889726e+02=T 90.00000=T Traj:=T positionsangstrom=T Step:=T 0=T Bead:=T pbc="F F F"
C      -41.36200000     -31.60340000     -71.44550000
C      -42.61380000     -31.16280000     -71.88140000
C      -43.57960000     -30.85150000     -70.89010000
C      -43.33060000     -31.01160000     -69.52120000
C      -42.06580000     -31.56530000     -69.17400000
C      -41.09100000     -31.83890000     -70.09090000
H      -40.71350000     -31.90620000     -72.14530000
H      -44.48920000     -30.46260000     -71.26990000
H      -42.01550000     -31.76870000     -68.10110000
H      -40.20850000     -32.23770000     -69.67270000
C      -44.31480000     -30.62260000     -68.44860000
H      -44.42740000     -29.52470000     -68.35150000
H      -43.86680000     -31.00470000     -67.52020000
C      -42.88320000     -31.12150000     -73.31690000
H      -43.33520000     -30.26020000     -73.75360000
H      -42.03530000     -31.13810000     -73.92390000
S      -46.05110000     -31.31080000     -68.48320000
S      -43.93760000     -32.66260000     -73.81120000
C      -45.84150000     -32.97350000     -69.16350000
H      -45.31570000     -32.88210000     -70.12300000
H      -45.30100000     -33.57050000     -68.51140000
C      -45.60540000     -31.95850000     -73.90710000
H      -46.03880000     -32.17760000     -74.92520000
H      -45.54670000     -30.87250000     -73.68000000
C      -46.56590000     -32.57000000     -72.86280000
H      -46.45250000     -31.89590000     -71.97750000
H      -47.56660000     -32.35400000     -73.26340000
C      -47.32540000     -33.44800000     -69.41630000
H      -47.82310000     -32.70980000     -70.02820000
H      -47.89810000     -33.60770000     -68.49450000
C      -47.31100000     -34.76430000     -70.20690000
C      -47.66140000     -35.90250000     -69.61170000
C      -46.88590000     -34.91630000     -71.54630000
H      -48.04570000     -36.08340000     -68.59710000
C      -47.02450000     -36.22250000     -71.96870000
C      -46.59650000     -34.08250000     -72.69920000
C      -46.26050000     -34.81770000     -73.81530000
S      -47.69760000     -37.27210000     -70.75170000
S      -46.51060000     -36.50310000     -73.56160000
H      -45.93240000     -34.54500000     -74.82050000
