40
Properties=species:S:1:pos:R:3 #=T CELL(abcABC):=T 1.889726e+02=T 90.00000=T Traj:=T positionsangstrom=T Step:=T 0=T Bead:=T pbc="F F F"
C      -41.36400000     -31.82480000     -71.36620000
C      -42.55560000     -31.25230000     -71.78770000
C      -43.49290000     -30.89560000     -70.81300000
C      -43.30910000     -31.19450000     -69.44140000
C      -42.11660000     -31.81950000     -69.11110000
C      -41.12830000     -32.11250000     -70.03870000
H      -40.62190000     -31.92640000     -72.08530000
H      -44.55540000     -30.49050000     -70.96600000
H      -41.96870000     -31.94940000     -68.03940000
H      -40.16620000     -32.54350000     -69.86490000
C      -44.24080000     -30.75490000     -68.35740000
H      -44.10860000     -29.70350000     -68.26270000
H      -44.00600000     -31.15540000     -67.37950000
C      -42.95200000     -31.14890000     -73.23550000
H      -43.60050000     -30.26700000     -73.44790000
H      -41.89730000     -31.11690000     -73.74110000
S      -46.05680000     -30.90580000     -68.76580000
S      -43.77180000     -32.65740000     -73.81490000
C      -46.13540000     -32.76590000     -69.04040000
H      -45.28220000     -33.03800000     -69.69100000
H      -45.90720000     -33.28040000     -68.05180000
C      -45.57980000     -32.10470000     -73.82420000
H      -46.00250000     -32.29050000     -74.81840000
H      -45.55320000     -31.07010000     -73.65560000
C      -46.39680000     -32.66020000     -72.64440000
H      -45.94780000     -32.49470000     -71.70760000
H      -47.37920000     -32.14800000     -72.57470000
C      -47.53990000     -33.27240000     -69.61410000
H      -47.82800000     -32.50430000     -70.35350000
H      -48.26530000     -33.32900000     -68.79710000
C      -47.47670000     -34.58810000     -70.26220000
C      -47.86170000     -35.71340000     -69.66390000
C      -47.05950000     -34.91100000     -71.67700000
H      -48.17650000     -35.74120000     -68.58540000
C      -47.03460000     -36.24320000     -71.96370000
C      -46.60530000     -34.12410000     -72.84380000
C      -46.34360000     -34.87620000     -73.94290000
S      -47.47910000     -37.26610000     -70.57090000
S      -46.55530000     -36.59170000     -73.65300000
H      -45.95240000     -34.50210000     -74.90910000
