40
Properties=species:S:1:pos:R:3 #=T CELL(abcABC):=T 1.889726e+02=T 90.00000=T Traj:=T positionsangstrom=T Step:=T 0=T Bead:=T pbc="F F F"
C      -44.97160000     -35.51480000     -74.31870000
C      -45.96130000     -34.50930000     -74.62290000
C      -47.10030000     -34.45070000     -73.88310000
C      -47.41610000     -35.37950000     -72.81410000
C      -46.47820000     -36.38310000     -72.63170000
C      -45.33200000     -36.49230000     -73.40640000
H      -44.01620000     -35.50800000     -74.77920000
H      -47.84350000     -33.69550000     -74.06450000
H      -46.70890000     -37.17390000     -71.90710000
H      -44.63660000     -37.28910000     -73.17970000
C      -48.64910000     -35.31060000     -71.93300000
H      -49.31360000     -36.16070000     -72.14240000
H      -49.13700000     -34.28610000     -72.21020000
C      -45.67870000     -33.36340000     -75.66350000
H      -44.92640000     -33.76090000     -76.35350000
H      -46.55810000     -33.13990000     -76.28960000
S      -48.32270000     -35.45270000     -70.15520000
S      -45.30940000     -31.70320000     -74.88150000
C      -46.76240000     -34.54230000     -69.81140000
H      -46.41280000     -35.05570000     -68.95590000
H      -46.01560000     -34.78190000     -70.54640000
C      -44.22900000     -31.96460000     -73.38500000
H      -43.96300000     -30.95420000     -73.00010000
H      -43.26200000     -32.34930000     -73.71510000
C      -44.74070000     -32.73560000     -72.15990000
H      -45.80120000     -32.47900000     -71.94230000
H      -44.65550000     -33.81200000     -72.36680000
C      -46.91530000     -32.98170000     -69.60080000
H      -47.82020000     -32.74370000     -69.03590000
H      -47.05030000     -32.50830000     -70.59970000
C      -45.60100000     -32.50840000     -68.97050000
C      -45.59550000     -32.24930000     -67.63680000
C      -44.37900000     -32.30750000     -69.65560000
H      -46.46120000     -32.27450000     -66.96900000
C      -43.35500000     -31.91410000     -68.77780000
C      -43.91150000     -32.43490000     -70.96740000
C      -42.51360000     -32.34980000     -71.01190000
S      -43.94000000     -31.72000000     -67.16340000
S      -41.79350000     -31.91300000     -69.52800000
H      -41.81560000     -32.27880000     -71.87690000
