40
Properties=species:S:1:pos:R:3 #=T CELL(abcABC):=T 1.889726e+02=T 90.00000=T Traj:=T positionsangstrom=T Step:=T 0=T Bead:=T pbc="F F F"
C      -41.41800000     -31.72300000     -71.35970000
C      -42.68040000     -31.25030000     -71.79660000
C      -43.62850000     -30.90620000     -70.80660000
C      -43.24860000     -30.86280000     -69.44940000
C      -41.99840000     -31.33010000     -69.05990000
C      -41.05260000     -31.74580000     -70.02910000
H      -40.82350000     -31.96310000     -72.19900000
H      -44.59200000     -30.67390000     -71.03780000
H      -41.58380000     -31.28890000     -68.02700000
H      -40.05440000     -31.90980000     -69.66060000
C      -44.27290000     -30.42820000     -68.45600000
H      -44.65510000     -29.43430000     -68.80030000
H      -43.84460000     -30.34390000     -67.44850000
C      -43.00880000     -31.15630000     -73.30140000
H      -43.73770000     -30.27320000     -73.35380000
H      -42.07290000     -31.15210000     -73.77200000
S      -45.89340000     -31.37850000     -68.28640000
S      -44.05360000     -32.52850000     -73.93820000
C      -45.77270000     -33.02890000     -69.16750000
H      -44.97530000     -33.10480000     -70.00580000
H      -45.39590000     -33.72530000     -68.37860000
C      -45.76920000     -31.89690000     -73.76100000
H      -46.20600000     -31.88450000     -74.69740000
H      -45.72490000     -30.84070000     -73.50000000
C      -46.34910000     -32.64340000     -72.61370000
H      -45.74760000     -32.43950000     -71.68440000
H      -47.32180000     -32.20550000     -72.31620000
C      -47.23330000     -33.45200000     -69.56610000
H      -47.80220000     -32.63270000     -70.03550000
H      -47.76490000     -33.53710000     -68.61470000
C      -47.33280000     -34.79390000     -70.28890000
C      -47.75980000     -35.94980000     -69.72190000
C      -47.07710000     -34.92900000     -71.65410000
H      -48.13620000     -36.05210000     -68.73970000
C      -47.16640000     -36.29930000     -72.11860000
C      -46.56820000     -34.10830000     -72.78630000
C      -46.21430000     -34.83600000     -73.92060000
S      -47.66530000     -37.36000000     -70.79930000
S      -46.51840000     -36.55230000     -73.68850000
H      -45.90880000     -34.40230000     -74.85550000
