40
Properties=species:S:1:pos:R:3 #=T CELL(abcABC):=T 1.889726e+02=T 90.00000=T Traj:=T positionsangstrom=T Step:=T 0=T Bead:=T pbc="F F F"
C      -45.11590000     -35.97270000     -74.73240000
C      -45.41430000     -34.61750000     -74.50810000
C      -46.60110000     -34.32680000     -73.74360000
C      -47.39570000     -35.36980000     -73.16820000
C      -47.06990000     -36.65950000     -73.56040000
C      -46.00090000     -36.96250000     -74.37130000
H      -44.22020000     -36.19730000     -75.33150000
H      -46.95630000     -33.29990000     -73.62750000
H      -47.72740000     -37.45330000     -73.20450000
H      -45.76840000     -37.98240000     -74.68060000
C      -48.53210000     -35.02830000     -72.19920000
H      -49.45600000     -35.57770000     -72.42980000
H      -48.78460000     -33.91880000     -72.25660000
C      -44.45310000     -33.66040000     -75.12670000
H      -43.48190000     -33.86390000     -74.73650000
H      -44.43830000     -33.73550000     -76.19580000
S      -48.08550000     -35.72620000     -70.52720000
S      -44.87250000     -31.88960000     -74.80810000
C      -46.65610000     -34.70920000     -69.88740000
H      -46.48660000     -34.96590000     -68.89750000
H      -45.74010000     -35.01530000     -70.40370000
C      -44.14360000     -31.67290000     -73.10290000
H      -44.67360000     -30.84680000     -72.62930000
H      -43.10660000     -31.33490000     -73.19010000
C      -44.12480000     -32.87070000     -72.11860000
H      -45.15340000     -33.28150000     -72.07020000
H      -43.49570000     -33.71390000     -72.45030000
C      -47.00420000     -33.25330000     -69.95130000
H      -47.96360000     -33.12170000     -69.47730000
H      -47.01170000     -32.89290000     -70.98290000
C      -45.86830000     -32.43470000     -69.16150000
C      -46.15180000     -31.95050000     -67.90090000
C      -44.47360000     -32.28800000     -69.53230000
H      -47.12110000     -32.07250000     -67.37280000
C      -43.74470000     -31.86160000     -68.39570000
C      -43.64950000     -32.39220000     -70.74560000
C      -42.36320000     -31.94800000     -70.47730000
S      -44.70890000     -31.54860000     -67.03210000
S      -42.10930000     -31.37650000     -68.78560000
H      -41.61240000     -31.87930000     -71.22130000
