40
Properties=species:S:1:pos:R:3 #=T CELL(abcABC):=T 1.889726e+02=T 90.00000=T Traj:=T positionsangstrom=T Step:=T 0=T Bead:=T pbc="F F F"
C      -41.50640000     -32.19470000     -71.38320000
C      -42.53280000     -31.22730000     -71.61940000
C      -43.40870000     -30.95890000     -70.58240000
C      -43.39360000     -31.62070000     -69.33890000
C      -42.27060000     -32.41470000     -69.09580000
C      -41.36870000     -32.69340000     -70.12370000
H      -40.71890000     -32.41860000     -72.08970000
H      -44.08920000     -30.13990000     -70.69430000
H      -42.11150000     -32.70400000     -68.07390000
H      -40.55390000     -33.35580000     -69.89420000
C      -44.47820000     -31.31330000     -68.35070000
H      -45.36050000     -30.68910000     -68.72640000
H      -44.07140000     -30.57970000     -67.61930000
C      -42.65910000     -30.58950000     -72.98910000
H      -43.34230000     -29.72250000     -72.98280000
H      -41.76880000     -30.36040000     -73.48540000
S      -45.11460000     -32.75370000     -67.35930000
S      -43.60950000     -31.76100000     -74.17870000
C      -45.66590000     -33.85930000     -68.75060000
H      -44.89180000     -33.92970000     -69.50600000
H      -45.73410000     -34.96160000     -68.32410000
C      -45.30150000     -31.55390000     -73.50810000
H      -46.06260000     -31.66380000     -74.35370000
H      -45.44820000     -30.44110000     -73.31280000
C      -45.91790000     -32.37160000     -72.40520000
H      -45.24510000     -32.41250000     -71.60060000
H      -46.74340000     -31.75100000     -72.09660000
C      -47.06660000     -33.46520000     -69.43960000
H      -46.84490000     -32.56830000     -70.02110000
H      -47.82510000     -33.24220000     -68.76910000
C      -47.41200000     -34.54960000     -70.42670000
C      -48.10220000     -35.65340000     -70.04030000
C      -46.94420000     -34.60130000     -71.86910000
H      -48.47200000     -35.78590000     -69.03770000
C      -47.44560000     -35.79200000     -72.39650000
C      -46.33800000     -33.74720000     -72.85380000
C      -46.42470000     -34.28010000     -74.12760000
S      -48.34490000     -36.80610000     -71.36100000
S      -47.21220000     -35.83540000     -74.06880000
H      -46.02510000     -33.81060000     -75.05300000
