40
Properties=species:S:1:pos:R:3 #=T CELL(abcABC):=T 1.889726e+02=T 90.00000=T Traj:=T positionsangstrom=T Step:=T 0=T Bead:=T pbc="F F F"
C      -45.37100000     -30.41390000     -70.99410000
C      -44.28400000     -30.71140000     -71.80750000
C      -44.43260000     -31.53510000     -72.93710000
C      -45.59290000     -32.18610000     -73.24360000
C      -46.70730000     -31.92270000     -72.39740000
C      -46.58510000     -31.07930000     -71.26690000
H      -45.23090000     -29.79000000     -70.09380000
H      -43.59510000     -31.65590000     -73.55800000
H      -47.74690000     -32.12390000     -72.65620000
H      -47.45520000     -30.89270000     -70.66320000
C      -45.67150000     -32.81340000     -74.57930000
H      -44.72680000     -32.66900000     -75.06540000
H      -46.36900000     -32.19780000     -75.20150000
C      -42.86380000     -30.11710000     -71.54800000
H      -42.42190000     -29.58890000     -72.38720000
H      -42.89530000     -29.45540000     -70.67570000
S      -46.13720000     -34.55980000     -74.49760000
S      -41.67900000     -31.50180000     -71.26660000
C      -44.65720000     -35.13740000     -73.58590000
H      -44.07290000     -35.73150000     -74.32880000
H      -44.08020000     -34.28600000     -73.29860000
C      -42.48890000     -32.50150000     -69.96830000
H      -43.13420000     -31.85780000     -69.32900000
H      -41.70670000     -32.91730000     -69.32680000
C      -43.32640000     -33.79010000     -70.44700000
H      -43.32570000     -33.97820000     -71.55130000
H      -42.79880000     -34.64490000     -70.04500000
C      -44.94400000     -36.07270000     -72.42120000
H      -44.10860000     -35.95700000     -71.70140000
H      -45.12570000     -37.12590000     -72.69020000
C      -46.07760000     -35.63310000     -71.47320000
C      -47.33330000     -36.15030000     -71.35630000
C      -45.85220000     -34.64680000     -70.40180000
H      -47.81010000     -36.87700000     -72.04100000
C      -46.93530000     -34.57440000     -69.52380000
C      -44.67430000     -33.89880000     -69.79780000
C      -44.98950000     -33.36840000     -68.55700000
S      -48.28980000     -35.53120000     -70.02080000
S      -46.60850000     -33.74710000     -68.03060000
H      -44.32600000     -32.88600000     -67.82830000
