40
Properties=species:S:1:pos:R:3 #=T CELL(abcABC):=T 1.889726e+02=T 90.00000=T Traj:=T positionsangstrom=T Step:=T 0=T Bead:=T pbc="F F F"
C      -47.89720000     -34.67910000     -68.39870000
C      -48.14950000     -33.95260000     -69.57040000
C      -47.61590000     -32.66080000     -69.69730000
C      -46.76380000     -32.12720000     -68.72940000
C      -46.53140000     -32.85210000     -67.54220000
C      -47.16300000     -34.12070000     -67.33560000
H      -48.25030000     -35.68980000     -68.22190000
H      -47.94840000     -32.19700000     -70.62060000
H      -45.93270000     -32.41710000     -66.76370000
H      -46.91350000     -34.66160000     -66.41990000
C      -46.01220000     -30.83380000     -68.89600000
H      -45.65990000     -30.48440000     -67.91530000
H      -46.71200000     -30.06320000     -69.35150000
C      -48.91000000     -34.49300000     -70.74620000
H      -49.95120000     -34.44700000     -70.35990000
H      -48.86180000     -33.77870000     -71.55110000
S      -44.58470000     -30.71270000     -70.08480000
S      -48.47690000     -36.18170000     -71.26080000
C      -45.46170000     -30.25350000     -71.70500000
H      -46.46050000     -30.04430000     -71.35330000
H      -45.00770000     -29.42960000     -72.11670000
C      -46.75260000     -35.95190000     -72.03240000
H      -46.81860000     -36.51410000     -73.02310000
H      -46.15500000     -36.55110000     -71.36290000
C      -46.11530000     -34.59400000     -72.12100000
H      -46.68210000     -34.08790000     -72.87800000
H      -46.30490000     -34.02750000     -71.26570000
C      -45.57040000     -31.43420000     -72.70310000
H      -46.02860000     -30.94220000     -73.60660000
H      -46.32890000     -32.14720000     -72.35560000
C      -44.20280000     -32.04700000     -72.84320000
C      -43.12920000     -31.28350000     -73.27080000
C      -43.92940000     -33.42550000     -72.79940000
H      -43.12980000     -30.23210000     -73.53660000
C      -42.56910000     -33.67990000     -73.15240000
C      -44.63900000     -34.63060000     -72.39840000
C      -43.81340000     -35.71780000     -72.59120000
S      -41.68900000     -32.25500000     -73.59890000
S      -42.16370000     -35.37720000     -73.08160000
H      -44.08520000     -36.75560000     -72.25370000
