40
Properties=species:S:1:pos:R:3 #=T CELL(abcABC):=T 1.889726e+02=T 90.00000=T Traj:=T positionsangstrom=T Step:=T 0=T Bead:=T pbc="F F F"
C      -46.26860000     -36.32920000     -73.74220000
C      -46.87450000     -36.02630000     -72.48920000
C      -46.29300000     -36.35440000     -71.28340000
C      -45.04550000     -36.92050000     -71.31100000
C      -44.40900000     -37.29750000     -72.54420000
C      -44.93460000     -36.83750000     -73.73140000
H      -46.74160000     -35.99990000     -74.68930000
H      -46.75780000     -36.07090000     -70.29120000
H      -43.46900000     -37.84610000     -72.63100000
H      -44.42110000     -37.09170000     -74.63990000
C      -44.33830000     -37.04040000     -70.02090000
H      -43.98950000     -38.09230000     -69.86140000
H      -45.09930000     -36.73950000     -69.22040000
C      -48.31200000     -35.51440000     -72.36960000
H      -48.91730000     -36.33180000     -72.72730000
H      -48.48200000     -35.32090000     -71.23430000
S      -42.81640000     -36.04610000     -69.96440000
S      -48.70400000     -33.93160000     -73.21800000
C      -43.64570000     -34.37170000     -69.75690000
H      -44.49240000     -34.47410000     -69.01500000
H      -42.96660000     -33.65130000     -69.32340000
C      -47.27890000     -32.73720000     -72.62260000
H      -47.42840000     -31.85520000     -73.27980000
H      -46.42180000     -33.27560000     -72.93240000
C      -47.28320000     -32.38570000     -71.13920000
H      -48.27400000     -32.05850000     -70.79180000
H      -47.00410000     -33.27300000     -70.59570000
C      -44.22680000     -33.72070000     -71.11510000
H      -45.21160000     -33.96790000     -71.37520000
H      -43.61300000     -34.13490000     -71.92700000
C      -43.97700000     -32.22880000     -70.96880000
C      -42.71920000     -31.69060000     -70.84120000
C      -44.97970000     -31.22550000     -70.84970000
H      -41.74660000     -32.29480000     -70.84270000
C      -44.42540000     -30.00580000     -70.51370000
C      -46.42840000     -31.25260000     -70.73630000
C      -46.94740000     -29.98350000     -70.54010000
S      -42.67320000     -29.93780000     -70.49030000
S      -45.73030000     -28.80310000     -70.25610000
H      -47.93460000     -29.65370000     -70.25420000
