40
Properties=species:S:1:pos:R:3 #=T CELL(abcABC):=T 1.889726e+02=T 90.00000=T Traj:=T positionsangstrom=T Step:=T 0=T Bead:=T pbc="F F F"
C      -46.49020000     -36.45040000     -73.58700000
C      -46.94000000     -36.11810000     -72.26110000
C      -46.28310000     -36.47650000     -71.08640000
C      -45.03360000     -37.11710000     -71.35860000
C      -44.54310000     -37.38120000     -72.63310000
C      -45.24480000     -37.10270000     -73.77950000
H      -47.08400000     -36.22510000     -74.45380000
H      -46.62240000     -36.30840000     -70.08070000
H      -43.54290000     -37.72860000     -72.83610000
H      -44.80470000     -37.46070000     -74.69200000
C      -44.13080000     -37.38440000     -70.19490000
H      -43.54990000     -38.28260000     -70.37120000
H      -44.66250000     -37.49340000     -69.30340000
C      -48.26260000     -35.37160000     -72.25100000
H      -49.12610000     -35.96690000     -72.58690000
H      -48.50310000     -35.17390000     -71.23200000
S      -42.86980000     -36.02960000     -69.93920000
S      -48.51880000     -33.80230000     -73.21250000
C      -43.89430000     -34.44090000     -69.89120000
H      -44.86150000     -34.80190000     -69.54940000
H      -43.37270000     -33.82890000     -69.15170000
C      -47.22180000     -32.58560000     -72.62730000
H      -47.35420000     -31.63850000     -73.10580000
H      -46.22030000     -32.90450000     -72.96000000
C      -47.26610000     -32.33340000     -71.13170000
H      -48.28250000     -32.23030000     -70.77740000
H      -46.94310000     -33.28690000     -70.61600000
C      -44.03300000     -33.73930000     -71.28360000
H      -44.90090000     -34.10910000     -71.86920000
H      -43.11790000     -33.98230000     -71.77890000
C      -43.93580000     -32.18600000     -71.06610000
C      -42.70960000     -31.59760000     -70.87120000
C      -44.98110000     -31.20580000     -70.75010000
H      -41.71520000     -32.10330000     -71.05050000
C      -44.46360000     -29.98290000     -70.48380000
C      -46.46660000     -31.14700000     -70.75250000
C      -46.97580000     -29.89820000     -70.57900000
S      -42.76470000     -29.87630000     -70.42880000
S      -45.59610000     -28.75860000     -70.30400000
H      -48.03590000     -29.51360000     -70.47440000
