40
Properties=species:S:1:pos:R:3 #=T CELL(abcABC):=T 1.889726e+02=T 90.00000=T Traj:=T positionsangstrom=T Step:=T 0=T Bead:=T pbc="F F F"
C      -41.43160000     -32.31740000     -71.53130000
C      -42.52850000     -31.47510000     -71.44570000
C      -43.07400000     -31.25420000     -70.17660000
C      -42.62130000     -31.93990000     -69.07210000
C      -41.45070000     -32.78890000     -69.19980000
C      -40.82870000     -32.96240000     -70.44990000
H      -40.92360000     -32.43330000     -72.45780000
H      -43.97080000     -30.61940000     -70.07550000
H      -41.16660000     -33.42450000     -68.30440000
H      -39.93670000     -33.58510000     -70.50450000
C      -43.36600000     -31.76360000     -67.76030000
H      -43.96940000     -30.87140000     -67.86510000
H      -42.78660000     -31.64660000     -66.90660000
C      -43.05860000     -30.73420000     -72.69150000
H      -43.67290000     -29.86210000     -72.42510000
H      -42.31250000     -30.36330000     -73.38740000
S      -44.61440000     -33.23410000     -67.46600000
S      -44.01690000     -31.91330000     -73.81810000
C      -45.23420000     -33.93030000     -69.08850000
H      -44.48470000     -33.83980000     -69.94850000
H      -45.45960000     -34.96390000     -68.85310000
C      -45.68910000     -31.17310000     -73.83660000
H      -46.18120000     -31.47590000     -74.75550000
H      -45.56560000     -30.07780000     -73.89590000
C      -46.48780000     -31.83750000     -72.69880000
H      -45.83020000     -31.62230000     -71.80660000
H      -47.34300000     -31.26710000     -72.52990000
C      -46.65700000     -33.38650000     -69.61780000
H      -46.59110000     -32.50170000     -70.18960000
H      -47.31340000     -33.11980000     -68.79780000
C      -47.20380000     -34.47580000     -70.45730000
C      -47.78800000     -35.66660000     -70.02250000
C      -47.31440000     -34.34030000     -71.93670000
H      -47.78800000     -36.04780000     -68.94370000
C      -47.95590000     -35.46720000     -72.48680000
C      -46.90210000     -33.34440000     -72.90840000
C      -47.18430000     -33.81390000     -74.16200000
S      -48.26890000     -36.73180000     -71.33010000
S      -48.02510000     -35.34620000     -74.23160000
H      -46.92810000     -33.17610000     -74.98840000
