40
Properties=species:S:1:pos:R:3 #=T CELL(abcABC):=T 1.889726e+02=T 90.00000=T Traj:=T positionsangstrom=T Step:=T 0=T Bead:=T pbc="F F F"
C      -48.01890000     -34.79580000     -68.07520000
C      -48.25480000     -34.14490000     -69.32560000
C      -47.68840000     -32.84430000     -69.52290000
C      -46.92200000     -32.16710000     -68.53580000
C      -46.79240000     -32.80690000     -67.23420000
C      -47.41430000     -34.06160000     -67.06230000
H      -48.31510000     -35.81640000     -67.92870000
H      -47.74260000     -32.38990000     -70.53990000
H      -46.28150000     -32.34550000     -66.43200000
H      -47.24970000     -34.62440000     -66.18020000
C      -46.30230000     -30.88710000     -68.79610000
H      -45.95010000     -30.39300000     -67.83790000
H      -46.91840000     -30.23660000     -69.43150000
C      -49.01600000     -34.73510000     -70.46900000
H      -50.01780000     -34.98790000     -70.17390000
H      -49.11540000     -33.88270000     -71.21290000
S      -44.69170000     -30.97600000     -69.81540000
S      -48.15680000     -36.12440000     -71.18800000
C      -45.18580000     -30.24710000     -71.50200000
H      -46.08560000     -29.63600000     -71.35510000
H      -44.44140000     -29.53540000     -71.82690000
C      -46.32050000     -35.82000000     -71.33450000
H      -45.96310000     -36.81940000     -71.64980000
H      -45.82110000     -35.60600000     -70.39130000
C      -46.00420000     -34.71900000     -72.33800000
H      -46.67080000     -34.87680000     -73.18220000
H      -46.38170000     -33.80570000     -71.89390000
C      -45.46510000     -31.30450000     -72.61100000
H      -45.91560000     -30.71820000     -73.44130000
H      -46.25070000     -31.96210000     -72.34100000
C      -44.19870000     -31.91860000     -73.08510000
C      -43.18260000     -31.15030000     -73.53760000
C      -43.86900000     -33.34550000     -73.07780000
H      -43.22600000     -30.09750000     -73.77610000
C      -42.59720000     -33.60520000     -73.53790000
C      -44.61820000     -34.56130000     -72.78850000
C      -43.76710000     -35.68390000     -72.89820000
S      -41.78720000     -32.11990000     -73.96740000
S      -42.16140000     -35.28110000     -73.43350000
H      -43.94990000     -36.81180000     -72.87180000
