40
Properties=species:S:1:pos:R:3 #=T CELL(abcABC):=T 1.889726e+02=T 90.00000=T Traj:=T positionsangstrom=T Step:=T 0=T Bead:=T pbc="F F F"
C      -41.38580000     -32.02360000     -71.28270000
C      -42.46130000     -31.14690000     -71.52910000
C      -43.50840000     -31.03660000     -70.58140000
C      -43.44920000     -31.65970000     -69.36730000
C      -42.38920000     -32.52770000     -69.16080000
C      -41.32590000     -32.69670000     -70.04350000
H      -40.72500000     -32.28640000     -72.06260000
H      -44.37410000     -30.42090000     -70.80110000
H      -42.35990000     -33.22620000     -68.29280000
H      -40.47960000     -33.35560000     -69.83950000
C      -44.30220000     -31.39260000     -68.19280000
H      -45.09760000     -30.76390000     -68.39290000
H      -43.67550000     -30.90910000     -67.43060000
C      -42.78110000     -30.66630000     -72.96890000
H      -43.25630000     -29.67080000     -73.01100000
H      -41.84350000     -30.55760000     -73.45370000
S      -44.92410000     -32.91650000     -67.31800000
S      -43.66380000     -31.89380000     -73.93080000
C      -45.39830000     -34.02290000     -68.85160000
H      -44.50920000     -34.19150000     -69.41700000
H      -45.68410000     -34.92770000     -68.32020000
C      -45.47640000     -31.51270000     -73.61830000
H      -45.95280000     -31.78770000     -74.51820000
H      -45.53670000     -30.46480000     -73.43490000
C      -46.10110000     -32.27520000     -72.52040000
H      -45.39330000     -32.40910000     -71.61560000
H      -46.97760000     -31.68460000     -72.05770000
C      -46.64310000     -33.53830000     -69.54410000
H      -46.46650000     -32.57970000     -70.07080000
H      -47.34460000     -33.21900000     -68.69470000
C      -47.22860000     -34.51830000     -70.49660000
C      -47.91520000     -35.61320000     -70.06840000
C      -47.11740000     -34.49280000     -71.96600000
H      -48.41850000     -35.67370000     -69.08920000
C      -47.69860000     -35.66140000     -72.52000000
C      -46.47280000     -33.67550000     -72.93700000
C      -46.55840000     -34.14120000     -74.21840000
S      -48.47410000     -36.66110000     -71.30760000
S      -47.26380000     -35.75160000     -74.20040000
H      -46.08160000     -33.66950000     -75.09810000
