40
Properties=species:S:1:pos:R:3 #=T CELL(abcABC):=T 1.889726e+02=T 90.00000=T Traj:=T positionsangstrom=T Step:=T 0=T Bead:=T pbc="F F F"
C      -48.40350000     -34.26720000     -67.87450000
C      -48.25770000     -33.78870000     -69.19730000
C      -47.36020000     -32.71230000     -69.38070000
C      -46.80400000     -32.07810000     -68.28160000
C      -46.81620000     -32.65930000     -66.98470000
C      -47.66910000     -33.71690000     -66.77870000
H      -48.97340000     -35.13010000     -67.60740000
H      -47.07130000     -32.36520000     -70.34780000
H      -46.15480000     -32.24470000     -66.21660000
H      -47.89680000     -34.06390000     -65.72120000
C      -45.75690000     -31.02430000     -68.51670000
H      -45.06930000     -31.03650000     -67.62890000
H      -46.32250000     -30.03640000     -68.58420000
C      -48.84240000     -34.48100000     -70.39730000
H      -49.82790000     -34.81600000     -70.07880000
H      -48.82940000     -33.75550000     -71.15620000
S      -44.67630000     -31.33590000     -69.99060000
S      -48.11500000     -36.06500000     -70.92950000
C      -45.33810000     -30.49970000     -71.44370000
H      -46.26420000     -29.90850000     -71.19180000
H      -44.62340000     -29.72550000     -71.65080000
C      -46.30060000     -35.49500000     -71.24520000
H      -45.70550000     -36.40590000     -71.16380000
H      -46.02880000     -34.83410000     -70.40380000
C      -46.15610000     -34.76350000     -72.54790000
H      -46.65560000     -35.35680000     -73.37060000
H      -46.61740000     -33.77170000     -72.40230000
C      -45.49250000     -31.43310000     -72.67340000
H      -45.78370000     -30.72130000     -73.47980000
H      -46.24570000     -32.25380000     -72.63080000
C      -44.12230000     -31.99600000     -73.04310000
C      -43.03840000     -31.22540000     -73.38920000
C      -43.84420000     -33.42700000     -73.08940000
H      -43.10420000     -30.13800000     -73.62760000
C      -42.58670000     -33.68700000     -73.53000000
C      -44.67960000     -34.59580000     -72.96270000
C      -44.05330000     -35.67390000     -73.49010000
S      -41.68130000     -32.21970000     -73.90240000
S      -42.37860000     -35.40020000     -73.97390000
H      -44.53650000     -36.64200000     -73.51890000
