40
Properties=species:S:1:pos:R:3 #=T CELL(abcABC):=T 1.889726e+02=T 90.00000=T Traj:=T positionsangstrom=T Step:=T 0=T Bead:=T pbc="F F F"
C      -43.11270000     -33.93610000     -69.11870000
C      -44.07000000     -33.22570000     -68.32320000
C      -45.32410000     -33.85230000     -68.14320000
C      -45.75580000     -35.08410000     -68.77910000
C      -44.76460000     -35.72060000     -69.57500000
C      -43.46610000     -35.11740000     -69.76240000
H      -42.15740000     -33.32460000     -69.20300000
H      -46.08030000     -33.42730000     -67.51020000
H      -45.01260000     -36.71330000     -70.13090000
H      -42.75070000     -35.56950000     -70.53690000
C      -47.11810000     -35.66190000     -68.54970000
H      -47.25290000     -35.58860000     -67.42640000
H      -47.33540000     -36.69140000     -68.86200000
C      -43.76610000     -31.77900000     -67.87860000
H      -44.57620000     -31.35560000     -67.30880000
H      -42.85220000     -31.83540000     -67.25840000
S      -48.39710000     -34.72620000     -69.59420000
S      -43.20180000     -30.74160000     -69.30810000
C      -47.33960000     -34.53870000     -71.17530000
H      -46.33380000     -34.19930000     -71.01170000
H      -47.26140000     -35.58210000     -71.44650000
C      -44.71000000     -30.46720000     -70.31370000
H      -44.42040000     -29.62670000     -71.06100000
H      -45.41870000     -29.95490000     -69.65820000
C      -45.42400000     -31.68280000     -71.00830000
H      -45.65650000     -32.38000000     -70.18920000
H      -46.45660000     -31.24310000     -71.25470000
C      -48.01000000     -33.64510000     -72.18200000
H      -48.18370000     -32.63490000     -71.81470000
H      -48.90080000     -34.15990000     -72.47560000
C      -47.03770000     -33.50630000     -73.35910000
C      -47.32320000     -34.03920000     -74.59550000
C      -45.68070000     -33.07620000     -73.19870000
H      -48.28640000     -34.56000000     -74.91680000
C      -44.95500000     -33.40760000     -74.35950000
C      -44.82910000     -32.30790000     -72.27200000
C      -43.57880000     -32.16530000     -72.77240000
S      -45.81840000     -34.25060000     -75.57610000
S      -43.34240000     -32.94530000     -74.31670000
H      -42.73160000     -31.55560000     -72.32270000
