40
Properties=species:S:1:pos:R:3 #=T CELL(abcABC):=T 1.889726e+02=T 90.00000=T Traj:=T positionsangstrom=T Step:=T 0=T Bead:=T pbc="F F F"
C      -48.45410000     -34.52050000     -67.86360000
C      -48.30120000     -33.93230000     -69.12610000
C      -47.31830000     -32.92990000     -69.26950000
C      -46.54780000     -32.39530000     -68.21850000
C      -46.77950000     -32.93340000     -66.92450000
C      -47.63670000     -34.01900000     -66.81800000
H      -48.94740000     -35.45170000     -67.80320000
H      -47.19770000     -32.58090000     -70.32630000
H      -46.17220000     -32.63090000     -66.06040000
H      -47.80520000     -34.52270000     -65.81360000
C      -45.64690000     -31.28550000     -68.34690000
H      -45.15420000     -31.17830000     -67.43920000
H      -46.07930000     -30.23990000     -68.57500000
C      -48.93650000     -34.43900000     -70.38070000
H      -49.98720000     -34.71590000     -70.29980000
H      -48.90030000     -33.59240000     -71.13100000
S      -44.43520000     -31.55000000     -69.71560000
S      -48.02800000     -35.86390000     -71.03930000
C      -45.31470000     -30.58660000     -71.03800000
H      -46.26950000     -30.16320000     -70.69120000
H      -44.65700000     -29.71430000     -71.12950000
C      -46.43310000     -35.14170000     -71.60460000
H      -45.68010000     -35.90920000     -71.36090000
H      -46.16630000     -34.22260000     -71.02430000
C      -46.31930000     -34.67680000     -73.03760000
H      -46.73770000     -35.36260000     -73.73630000
H      -46.90230000     -33.77530000     -73.18950000
C      -45.50640000     -31.30220000     -72.41550000
H      -45.84290000     -30.53340000     -73.09290000
H      -46.28420000     -32.07080000     -72.31260000
C      -44.22420000     -31.97300000     -72.97430000
C      -43.14200000     -31.18520000     -73.11520000
C      -43.98180000     -33.34210000     -73.27330000
H      -43.17500000     -30.09690000     -72.86870000
C      -42.64410000     -33.57350000     -73.50030000
C      -44.86340000     -34.51840000     -73.50210000
C      -44.10300000     -35.59130000     -74.01810000
S      -41.71200000     -32.09860000     -73.62300000
S      -42.42400000     -35.19380000     -74.18280000
H      -44.25180000     -36.66170000     -74.26800000
