40
Properties=species:S:1:pos:R:3 #=T CELL(abcABC):=T 1.889726e+02=T 90.00000=T Traj:=T positionsangstrom=T Step:=T 0=T Bead:=T pbc="F F F"
C      -48.30230000     -34.66820000     -68.06410000
C      -48.09080000     -33.90030000     -69.20380000
C      -47.35250000     -32.72080000     -69.15080000
C      -46.56600000     -32.41960000     -68.05810000
C      -46.71460000     -33.18280000     -66.90000000
C      -47.55730000     -34.31750000     -66.90560000
H      -48.98590000     -35.52260000     -68.05230000
H      -47.22910000     -32.16280000     -70.07530000
H      -46.24040000     -32.82880000     -65.99390000
H      -47.66210000     -34.80630000     -65.98100000
C      -45.65280000     -31.22790000     -68.18100000
H      -45.13660000     -31.03280000     -67.30480000
H      -46.16430000     -30.39700000     -68.48440000
C      -48.80580000     -34.25360000     -70.47490000
H      -49.88420000     -34.46780000     -70.26110000
H      -48.76350000     -33.47790000     -71.23700000
S      -44.44400000     -31.60880000     -69.69250000
S      -48.19990000     -35.91990000     -71.10290000
C      -45.25390000     -30.54970000     -70.93910000
H      -46.30340000     -30.44300000     -70.61580000
H      -44.70380000     -29.58170000     -70.97150000
C      -46.49200000     -35.32780000     -71.64810000
H      -45.84260000     -36.25210000     -71.60940000
H      -46.22110000     -34.67800000     -70.84560000
C      -46.37140000     -34.57580000     -73.03820000
H      -47.05290000     -35.01640000     -73.78300000
H      -46.67860000     -33.57330000     -72.98130000
C      -45.36310000     -31.22070000     -72.28970000
H      -45.65540000     -30.51400000     -73.07560000
H      -46.12010000     -31.98510000     -72.21040000
C      -44.16630000     -31.96610000     -72.75390000
C      -42.99400000     -31.23920000     -72.76100000
C      -44.02360000     -33.29130000     -73.30710000
H      -42.76120000     -30.31520000     -72.28480000
C      -42.69320000     -33.50350000     -73.70930000
C      -44.90290000     -34.45320000     -73.52400000
C      -44.26170000     -35.48180000     -74.22260000
S      -41.62090000     -32.12420000     -73.39260000
S      -42.55940000     -35.06820000     -74.51180000
H      -44.65910000     -36.44250000     -74.45150000
