40
Properties=species:S:1:pos:R:3 #=T CELL(abcABC):=T 1.889726e+02=T 90.00000=T Traj:=T positionsangstrom=T Step:=T 0=T Bead:=T pbc="F F F"
C      -47.49410000     -35.52770000     -69.03540000
C      -48.01750000     -34.41450000     -69.75530000
C      -47.61870000     -33.12080000     -69.30270000
C      -46.64270000     -32.94430000     -68.31180000
C      -46.02330000     -34.11350000     -67.78370000
C      -46.47940000     -35.34240000     -68.04030000
H      -48.01630000     -36.49550000     -69.02670000
H      -48.14410000     -32.30800000     -69.78750000
H      -45.24900000     -33.94640000     -67.02190000
H      -46.13560000     -36.23570000     -67.50900000
C      -46.19360000     -31.54940000     -67.76940000
H      -45.95530000     -31.58560000     -66.71950000
H      -46.92000000     -30.79670000     -68.04390000
C      -48.96550000     -34.60440000     -70.88930000
H      -49.69860000     -35.30210000     -70.60640000
H      -49.41150000     -33.62520000     -71.20550000
S      -44.54070000     -30.97600000     -68.44600000
S      -48.33020000     -35.54880000     -72.33750000
C      -45.00130000     -30.55420000     -70.20330000
H      -45.84600000     -29.84890000     -69.93870000
H      -44.24510000     -29.96400000     -70.69550000
C      -46.66490000     -34.96510000     -72.65340000
H      -46.18660000     -35.73210000     -73.23940000
H      -46.18490000     -34.86040000     -71.66760000
C      -46.52690000     -33.72510000     -73.56730000
H      -47.18900000     -33.80530000     -74.44450000
H      -46.86710000     -32.77580000     -73.16350000
C      -45.31900000     -31.69020000     -71.12590000
H      -45.89650000     -31.21210000     -71.87660000
H      -45.99870000     -32.43650000     -70.66810000
C      -44.12990000     -32.37660000     -71.76130000
C      -42.87170000     -32.22280000     -71.20620000
C      -44.07380000     -33.13020000     -72.97490000
H      -42.62250000     -31.63040000     -70.40030000
C      -42.82180000     -33.46440000     -73.39360000
C      -45.07180000     -33.57740000     -73.88170000
C      -44.48540000     -34.11060000     -74.99630000
S      -41.65140000     -32.85340000     -72.26590000
S      -42.75320000     -34.05550000     -75.03040000
H      -44.99800000     -34.55360000     -75.81020000
