40
Properties=species:S:1:pos:R:3 #=T CELL(abcABC):=T 1.889726e+02=T 90.00000=T Traj:=T positionsangstrom=T Step:=T 0=T Bead:=T pbc="F F F"
C      -47.81860000     -36.35370000     -69.88140000
C      -48.07660000     -34.95210000     -70.16530000
C      -47.50020000     -34.01340000     -69.34480000
C      -46.48390000     -34.36500000     -68.41060000
C      -46.04760000     -35.67980000     -68.27230000
C      -46.80530000     -36.64980000     -68.93510000
H      -48.37920000     -37.09210000     -70.39380000
H      -47.91200000     -33.00010000     -69.24850000
H      -45.23980000     -35.89580000     -67.50330000
H      -46.52860000     -37.70680000     -68.69540000
C      -45.88350000     -33.27670000     -67.55140000
H      -45.31560000     -33.75240000     -66.74200000
H      -46.68260000     -32.66560000     -67.08000000
C      -48.99640000     -34.46770000     -71.25260000
H      -49.99940000     -34.75750000     -71.13290000
H      -49.09390000     -33.36530000     -71.33740000
S      -44.73040000     -32.05910000     -68.34590000
S      -48.35380000     -35.01020000     -72.90600000
C      -45.78750000     -30.95870000     -69.54640000
H      -46.73570000     -30.89630000     -69.02130000
H      -45.39500000     -29.94130000     -69.57030000
C      -46.55870000     -34.74120000     -72.91040000
H      -46.11740000     -35.71210000     -73.22200000
H      -46.15590000     -34.42950000     -71.94660000
C      -46.17190000     -33.64570000     -73.96070000
H      -46.48650000     -33.98220000     -74.95140000
H      -46.70170000     -32.67410000     -73.79760000
C      -45.79760000     -31.47030000     -71.01530000
H      -46.18710000     -30.61910000     -71.56930000
H      -46.38370000     -32.41100000     -71.10750000
C      -44.42980000     -31.70220000     -71.56470000
C      -43.35870000     -30.93040000     -71.11000000
C      -44.05890000     -32.52580000     -72.75890000
H      -43.33290000     -30.46190000     -70.18260000
C      -42.65800000     -32.44900000     -72.94840000
C      -44.70010000     -33.35550000     -73.84750000
C      -43.75900000     -33.79340000     -74.73780000
S      -41.86260000     -31.32110000     -71.91930000
S      -42.11120000     -33.36970000     -74.28750000
H      -43.99270000     -34.55690000     -75.47320000
