40
Properties=species:S:1:pos:R:3 #=T CELL(abcABC):=T 1.889726e+02=T 90.00000=T Traj:=T positionsangstrom=T Step:=T 0=T Bead:=T pbc="F F F"
C      -47.73620000     -35.50340000     -69.02120000
C      -48.09400000     -34.28490000     -69.76210000
C      -47.55430000     -33.09990000     -69.28730000
C      -46.60860000     -33.00480000     -68.27860000
C      -46.21590000     -34.17590000     -67.63530000
C      -46.82410000     -35.40090000     -68.02100000
H      -48.08100000     -36.42230000     -69.44790000
H      -47.86850000     -32.14440000     -69.67400000
H      -45.55520000     -34.10270000     -66.80800000
H      -46.30790000     -36.30650000     -67.56950000
C      -46.09020000     -31.62320000     -67.78300000
H      -45.86010000     -31.67980000     -66.69450000
H      -47.00640000     -30.97670000     -67.72910000
C      -49.04220000     -34.27940000     -70.87160000
H      -50.11340000     -34.61140000     -70.75390000
H      -49.06010000     -33.29620000     -71.31080000
S      -44.59200000     -30.86970000     -68.56340000
S      -48.48390000     -35.55430000     -72.07360000
C      -45.08450000     -30.43810000     -70.32840000
H      -46.05120000     -30.00950000     -70.25220000
H      -44.32660000     -29.76270000     -70.70940000
C      -46.68370000     -34.94930000     -72.31030000
H      -46.02530000     -35.88460000     -72.43500000
H      -46.33270000     -34.41470000     -71.42560000
C      -46.45740000     -34.05150000     -73.60460000
H      -46.85270000     -34.63320000     -74.39560000
H      -47.00070000     -33.15600000     -73.40540000
C      -45.26070000     -31.64400000     -71.22830000
H      -45.96860000     -31.44390000     -72.02700000
H      -45.75200000     -32.45130000     -70.64830000
C      -43.96360000     -32.27410000     -71.83500000
C      -42.67190000     -32.08290000     -71.35710000
C      -44.00630000     -33.11570000     -73.01330000
H      -42.41200000     -31.52410000     -70.53020000
C      -42.72680000     -33.41030000     -73.49830000
C      -45.02200000     -33.71920000     -73.87720000
C      -44.42370000     -34.25540000     -74.97500000
S      -41.52030000     -32.82570000     -72.41060000
S      -42.65180000     -34.21740000     -75.02790000
H      -45.09240000     -34.66450000     -75.72080000
