40
Properties=species:S:1:pos:R:3 #=T CELL(abcABC):=T 1.889726e+02=T 90.00000=T Traj:=T positionsangstrom=T Step:=T 0=T Bead:=T pbc="F F F"
C      -46.29580000     -36.37080000     -73.81830000
C      -46.81730000     -35.92620000     -72.59190000
C      -46.07150000     -36.24650000     -71.40220000
C      -44.83390000     -36.94360000     -71.51770000
C      -44.41450000     -37.37960000     -72.82010000
C      -45.14460000     -37.14080000     -73.93890000
H      -46.92200000     -36.23650000     -74.75110000
H      -46.49720000     -35.95380000     -70.47700000
H      -43.49250000     -37.96830000     -72.85250000
H      -44.74290000     -37.58200000     -74.88040000
C      -43.98340000     -37.27530000     -70.31100000
H      -43.46170000     -38.23240000     -70.58400000
H      -44.66140000     -37.33900000     -69.48520000
C      -48.16620000     -35.31410000     -72.49530000
H      -48.86590000     -36.03360000     -72.94560000
H      -48.46550000     -34.96360000     -71.50450000
S      -42.69030000     -36.11810000     -69.83540000
S      -48.36390000     -33.84670000     -73.60060000
C      -43.69150000     -34.63670000     -69.10000000
H      -44.41700000     -35.07510000     -68.44780000
H      -42.80500000     -34.14440000     -68.58470000
C      -46.91910000     -32.82070000     -73.07380000
H      -46.81830000     -31.88490000     -73.65540000
H      -45.98050000     -33.40670000     -73.07990000
C      -47.26370000     -32.39590000     -71.70460000
H      -48.32970000     -32.16500000     -71.64490000
H      -47.09860000     -33.20850000     -71.03590000
C      -44.21390000     -33.75030000     -70.20490000
H      -45.25670000     -34.00410000     -70.35330000
H      -43.67970000     -33.95460000     -71.09240000
C      -44.19130000     -32.17910000     -70.02210000
C      -43.17050000     -31.58470000     -69.33440000
C      -45.19840000     -31.23360000     -70.52010000
H      -42.40340000     -31.98000000     -68.79140000
C      -44.71060000     -29.95800000     -70.43620000
C      -46.37270000     -31.23830000     -71.31700000
C      -46.74050000     -30.00760000     -71.75500000
S      -43.28860000     -29.80890000     -69.38550000
S      -45.69520000     -28.70710000     -71.15910000
H      -47.68820000     -29.84640000     -72.34310000
