40
Properties=species:S:1:pos:R:3 #=T CELL(abcABC):=T 1.889726e+02=T 90.00000=T Traj:=T positionsangstrom=T Step:=T 0=T Bead:=T pbc="F F F"
C      -46.35690000     -36.49990000     -73.84650000
C      -46.88060000     -36.16800000     -72.56790000
C      -46.09380000     -36.50050000     -71.53570000
C      -44.79140000     -37.03690000     -71.62440000
C      -44.32790000     -37.41090000     -72.87230000
C      -45.10490000     -37.09140000     -73.99150000
H      -46.96710000     -36.31630000     -74.72790000
H      -46.44990000     -36.23710000     -70.50080000
H      -43.34230000     -37.78950000     -73.06350000
H      -44.64680000     -37.22200000     -74.93760000
C      -44.05730000     -37.28230000     -70.35860000
H      -43.48710000     -38.12830000     -70.50370000
H      -44.73090000     -37.66250000     -69.60450000
C      -48.18070000     -35.40500000     -72.43130000
H      -49.03500000     -36.08920000     -72.44950000
H      -48.26020000     -35.03280000     -71.38350000
S      -42.82990000     -36.03770000     -69.81820000
S      -48.34310000     -34.05190000     -73.66490000
C      -43.74710000     -34.55510000     -69.20010000
H      -44.50690000     -34.97670000     -68.45960000
H      -43.10830000     -34.03980000     -68.51620000
C      -47.14370000     -32.91030000     -73.04390000
H      -47.15570000     -32.07810000     -73.71130000
H      -46.18060000     -33.35400000     -73.18200000
C      -47.33760000     -32.33090000     -71.53650000
H      -48.35430000     -31.96250000     -71.50680000
H      -47.18030000     -33.05040000     -70.72190000
C      -44.34830000     -33.60610000     -70.32500000
H      -45.41840000     -33.90370000     -70.48730000
H      -43.84380000     -33.97960000     -71.25040000
C      -44.16020000     -32.13600000     -70.00510000
C      -43.06840000     -31.56970000     -69.41370000
C      -45.15770000     -31.08090000     -70.48090000
H      -42.13060000     -32.17370000     -69.06100000
C      -44.64590000     -29.78760000     -70.23300000
C      -46.41000000     -31.14960000     -71.19730000
C      -46.78500000     -29.86550000     -71.48130000
S      -43.01360000     -29.81170000     -69.54950000
S      -45.67360000     -28.59660000     -71.04470000
H      -47.69890000     -29.62230000     -71.96740000
