40
Properties=species:S:1:pos:R:3 #=T CELL(abcABC):=T 1.889726e+02=T 90.00000=T Traj:=T positionsangstrom=T Step:=T 0=T Bead:=T pbc="F F F"
C      -43.41860000     -34.47990000     -74.54550000
C      -44.55970000     -33.67620000     -74.70950000
C      -45.83100000     -34.24340000     -74.45990000
C      -45.95530000     -35.50480000     -73.82310000
C      -44.80530000     -36.20770000     -73.48980000
C      -43.55100000     -35.62610000     -73.86770000
H      -42.41010000     -34.13070000     -74.80000000
H      -46.71140000     -33.66050000     -74.53120000
H      -44.89830000     -37.16090000     -73.09230000
H      -42.65450000     -36.17610000     -73.69330000
C      -47.36350000     -36.02210000     -73.42240000
H      -47.69980000     -36.94980000     -73.99540000
H      -48.17900000     -35.34890000     -73.62340000
C      -44.45720000     -32.32720000     -75.29900000
H      -43.40570000     -31.90460000     -75.45540000
H      -44.96630000     -32.24240000     -76.27920000
S      -47.61230000     -36.55000000     -71.67710000
S      -45.46070000     -31.01760000     -74.31270000
C      -47.29720000     -35.07950000     -70.61540000
H      -47.56450000     -34.23880000     -71.23080000
H      -47.97270000     -35.16440000     -69.78650000
C      -44.65470000     -30.89660000     -72.77430000
H      -45.24840000     -30.12010000     -72.22890000
H      -43.66190000     -30.42230000     -72.74300000
C      -44.67900000     -32.11110000     -71.80970000
H      -45.66880000     -32.64510000     -71.84780000
H      -43.89850000     -32.90650000     -72.09840000
C      -45.79390000     -34.97130000     -70.20390000
H      -45.32730000     -34.66540000     -71.17370000
H      -45.37920000     -35.95050000     -69.83550000
C      -45.48220000     -33.97240000     -69.18960000
C      -45.72830000     -34.32800000     -67.85100000
C      -44.92840000     -32.66280000     -69.29500000
H      -46.25470000     -35.23140000     -67.58090000
C      -44.77080000     -32.09040000     -68.04020000
C      -44.55350000     -31.76340000     -70.36760000
C      -44.10890000     -30.57810000     -69.79020000
S      -45.23440000     -33.12220000     -66.66300000
S      -44.26070000     -30.46710000     -68.07100000
H      -43.79470000     -29.76730000     -70.44390000
