40
Properties=species:S:1:pos:R:3 #=T CELL(abcABC):=T 1.889726e+02=T 90.00000=T Traj:=T positionsangstrom=T Step:=T 0=T Bead:=T pbc="F F F"
C      -47.46090000     -36.02810000     -69.96870000
C      -47.98160000     -34.70240000     -70.11920000
C      -47.67260000     -33.77960000     -69.12550000
C      -46.67040000     -34.08920000     -68.17110000
C      -46.21390000     -35.42320000     -67.93240000
C      -46.68300000     -36.38430000     -68.84840000
H      -47.66920000     -36.78020000     -70.69290000
H      -48.08790000     -32.82720000     -69.15670000
H      -45.45490000     -35.62710000     -67.11570000
H      -46.36250000     -37.43200000     -68.78920000
C      -46.08330000     -32.91200000     -67.39030000
H      -45.69120000     -33.23530000     -66.45330000
H      -46.79210000     -32.16900000     -67.11950000
C      -48.97320000     -34.49130000     -71.22070000
H      -49.74930000     -35.16560000     -70.96940000
H      -49.40430000     -33.45250000     -71.20360000
S      -44.79270000     -32.07950000     -68.43350000
S      -48.39760000     -35.02600000     -72.89320000
C      -45.81720000     -31.20740000     -69.68660000
H      -46.88690000     -31.31670000     -69.40130000
H      -45.65890000     -30.13530000     -69.71760000
C      -46.63070000     -34.64710000     -72.86470000
H      -46.06640000     -35.60490000     -73.08970000
H      -46.34570000     -34.49870000     -71.83900000
C      -46.21450000     -33.48380000     -73.86810000
H      -46.58130000     -33.68620000     -74.88170000
H      -46.72430000     -32.59500000     -73.49730000
C      -45.68940000     -31.77250000     -71.07730000
H      -46.50350000     -31.30060000     -71.69480000
H      -46.06570000     -32.80800000     -71.11720000
C      -44.33210000     -31.79720000     -71.72570000
C      -43.26550000     -31.08770000     -71.21210000
C      -44.02620000     -32.50070000     -72.92710000
H      -43.24650000     -30.42910000     -70.38920000
C      -42.65780000     -32.46500000     -73.12770000
C      -44.69780000     -33.41200000     -73.83950000
C      -43.81000000     -34.09670000     -74.63050000
S      -41.74830000     -31.43840000     -71.98790000
S      -42.10020000     -33.61260000     -74.33610000
H      -44.10030000     -34.76230000     -75.43160000
