40
Properties=species:S:1:pos:R:3 #=T CELL(abcABC):=T 1.889726e+02=T 90.00000=T Traj:=T positionsangstrom=T Step:=T 0=T Bead:=T pbc="F F F"
C      -49.35910000     -32.29320000     -71.99640000
C      -48.44670000     -33.25560000     -72.46190000
C      -47.90290000     -34.20790000     -71.55370000
C      -48.35740000     -34.26620000     -70.25170000
C      -49.34850000     -33.35490000     -69.79800000
C      -49.81100000     -32.30590000     -70.71130000
H      -49.75480000     -31.52530000     -72.66830000
H      -47.21160000     -34.94980000     -71.88890000
H      -49.66160000     -33.40780000     -68.76950000
H      -50.54070000     -31.63890000     -70.34950000
C      -47.92090000     -35.30130000     -69.23220000
H      -47.95080000     -36.35500000     -69.63580000
H      -48.49650000     -35.23910000     -68.33710000
C      -48.00560000     -33.18130000     -73.91440000
H      -47.35930000     -34.05940000     -74.23930000
H      -48.99090000     -33.26460000     -74.48860000
S      -46.09890000     -35.12020000     -68.72600000
S      -47.23830000     -31.57500000     -74.31770000
C      -45.65720000     -33.37770000     -68.31580000
H      -46.45200000     -32.66320000     -68.15760000
H      -45.01270000     -33.33440000     -67.40820000
C      -45.45260000     -31.84030000     -74.11210000
H      -44.86170000     -31.09850000     -74.57470000
H      -45.13230000     -32.75540000     -74.62760000
C      -45.05360000     -32.06860000     -72.65160000
H      -45.20030000     -31.23680000     -72.04210000
H      -45.65760000     -32.86130000     -72.17780000
C      -44.89590000     -32.75720000     -69.42820000
H      -44.50940000     -31.77620000     -69.10430000
H      -45.54100000     -32.62990000     -70.27830000
C      -43.75190000     -33.51140000     -69.90960000
C      -42.84270000     -34.15470000     -69.11860000
C      -43.17860000     -33.27800000     -71.25360000
H      -42.97210000     -34.16920000     -68.04220000
C      -41.89040000     -33.73260000     -71.30520000
C      -43.60540000     -32.69040000     -72.52280000
C      -42.64800000     -32.78080000     -73.51230000
S      -41.29800000     -34.43590000     -69.80850000
S      -41.16810000     -33.51160000     -72.90770000
H      -42.68510000     -32.33290000     -74.52030000
