40
Properties=species:S:1:pos:R:3 #=T CELL(abcABC):=T 1.889726e+02=T 90.00000=T Traj:=T positionsangstrom=T Step:=T 0=T Bead:=T pbc="F F F"
C      -43.26930000     -34.12020000     -74.15990000
C      -44.48350000     -33.43240000     -74.53860000
C      -45.69960000     -34.07000000     -74.28490000
C      -45.78090000     -35.38660000     -73.78530000
C      -44.55800000     -36.06940000     -73.63190000
C      -43.38070000     -35.44400000     -73.79060000
H      -42.30250000     -33.56990000     -74.08210000
H      -46.58340000     -33.52290000     -74.69320000
H      -44.54660000     -37.11040000     -73.28120000
H      -42.52330000     -36.06270000     -73.72330000
C      -47.07280000     -36.04450000     -73.59240000
H      -47.19420000     -36.79730000     -74.32280000
H      -47.89250000     -35.25210000     -73.75270000
C      -44.28180000     -31.97870000     -75.02380000
H      -43.28260000     -31.70120000     -74.66030000
H      -44.13570000     -32.03700000     -76.16870000
S      -47.36810000     -36.76490000     -71.85850000
S      -45.46950000     -30.67560000     -74.46860000
C      -47.00230000     -35.59720000     -70.47830000
H      -47.71230000     -34.84770000     -70.61830000
H      -47.21100000     -36.20440000     -69.53160000
C      -45.26100000     -30.46530000     -72.62420000
H      -46.10970000     -29.88910000     -72.14300000
H      -44.28050000     -30.00830000     -72.46760000
C      -45.16590000     -31.85650000     -71.86030000
H      -45.98100000     -32.56820000     -72.10520000
H      -44.21270000     -32.42130000     -72.15780000
C      -45.53910000     -35.09350000     -70.46080000
H      -45.33290000     -34.44390000     -71.37490000
H      -44.75560000     -35.87540000     -70.46050000
C      -45.17560000     -34.20850000     -69.28340000
C      -45.01890000     -34.72250000     -68.01900000
C      -45.04640000     -32.75480000     -69.31550000
H      -44.93800000     -35.79660000     -67.76770000
C      -44.91670000     -32.26000000     -67.97710000
C      -45.11460000     -31.67520000     -70.34160000
C      -44.96610000     -30.53930000     -69.68370000
S      -44.81150000     -33.48680000     -66.77280000
S      -45.04960000     -30.57150000     -67.91850000
H      -44.99280000     -29.49840000     -70.12540000
