40
Properties=species:S:1:pos:R:3 #=T CELL(abcABC):=T 1.889726e+02=T 90.00000=T Traj:=T positionsangstrom=T Step:=T 0=T Bead:=T pbc="F F F"
C      -47.49680000     -36.66070000     -70.18120000
C      -47.94440000     -35.33860000     -70.29710000
C      -47.52840000     -34.33700000     -69.40490000
C      -46.53090000     -34.61760000     -68.46530000
C      -46.08850000     -35.94530000     -68.33120000
C      -46.54840000     -36.99140000     -69.21180000
H      -47.79740000     -37.40480000     -70.87940000
H      -47.99240000     -33.40260000     -69.35840000
H      -45.30150000     -36.23340000     -67.61180000
H      -46.25860000     -38.07040000     -69.12710000
C      -45.95710000     -33.53460000     -67.56730000
H      -45.50870000     -34.00770000     -66.67550000
H      -46.71740000     -32.76920000     -67.33370000
C      -49.00040000     -35.01510000     -71.34700000
H      -49.91790000     -35.57390000     -71.29510000
H      -49.39400000     -33.88480000     -71.14320000
S      -44.69210000     -32.59090000     -68.49390000
S      -48.37200000     -35.28070000     -73.08920000
C      -45.57170000     -31.09560000     -69.24010000
H      -46.52080000     -30.94490000     -68.78570000
H      -44.95450000     -30.28670000     -68.85660000
C      -46.57780000     -34.59240000     -72.97320000
H      -45.93200000     -35.38900000     -73.37490000
H      -46.35170000     -34.54020000     -71.94190000
C      -46.33760000     -33.17130000     -73.59930000
H      -46.61760000     -33.15590000     -74.69200000
H      -46.93720000     -32.34630000     -73.17500000
C      -45.69460000     -31.15290000     -70.75120000
H      -46.25360000     -30.27360000     -70.98280000
H      -46.29330000     -32.04250000     -71.03870000
C      -44.41010000     -31.28230000     -71.47530000
C      -43.35540000     -30.46090000     -71.08760000
C      -44.04650000     -32.14630000     -72.58470000
H      -43.29520000     -29.82710000     -70.19110000
C      -42.73930000     -32.06140000     -72.94140000
C      -44.81410000     -32.94350000     -73.54620000
C      -43.97580000     -33.54400000     -74.38790000
S      -41.83810000     -30.89670000     -71.96740000
S      -42.26920000     -33.14170000     -74.25820000
H      -44.25230000     -34.23580000     -75.15290000
