40
Properties=species:S:1:pos:R:3 #=T CELL(abcABC):=T 1.889726e+02=T 90.00000=T Traj:=T positionsangstrom=T Step:=T 0=T Bead:=T pbc="F F F"
C      -47.02150000     -36.99940000     -70.24990000
C      -47.67590000     -35.74830000     -70.33730000
C      -47.49550000     -34.84710000     -69.25940000
C      -46.56770000     -35.13280000     -68.28870000
C      -45.92180000     -36.36950000     -68.23450000
C      -46.17480000     -37.30000000     -69.20280000
H      -47.12850000     -37.64490000     -71.04610000
H      -47.92110000     -33.87050000     -69.19300000
H      -45.15950000     -36.37740000     -67.49440000
H      -45.63190000     -38.25420000     -69.11380000
C      -46.08380000     -34.03260000     -67.27060000
H      -45.66230000     -34.59450000     -66.46600000
H      -46.98440000     -33.43520000     -67.09360000
C      -48.55170000     -35.29460000     -71.46490000
H      -49.44590000     -36.00240000     -71.60270000
H      -48.89730000     -34.24900000     -71.37120000
S      -44.82840000     -32.81750000     -67.77450000
S      -47.80060000     -35.47400000     -73.14950000
C      -45.76500000     -31.76730000     -69.09120000
H      -46.88030000     -31.81750000     -68.87870000
H      -45.54830000     -30.68220000     -68.95200000
C      -46.23580000     -34.49040000     -73.00280000
H      -45.36450000     -35.04510000     -73.37050000
H      -46.12070000     -34.38750000     -71.96680000
C      -46.31720000     -33.16860000     -73.78050000
H      -46.74130000     -33.31500000     -74.72200000
H      -47.02590000     -32.46210000     -73.37040000
C      -45.54030000     -32.29070000     -70.53180000
H      -46.46410000     -32.11740000     -71.11980000
H      -45.42240000     -33.37710000     -70.40480000
C      -44.40950000     -31.70810000     -71.29640000
C      -43.26990000     -31.19810000     -70.75020000
C      -44.24850000     -31.97080000     -72.76310000
H      -43.12250000     -31.14170000     -69.66550000
C      -43.06200000     -31.38600000     -73.13760000
C      -45.02680000     -32.46070000     -73.89720000
C      -44.40120000     -32.16180000     -75.07540000
S      -42.01780000     -30.80340000     -71.89380000
S      -42.90200000     -31.31500000     -74.89270000
H      -44.88180000     -32.39660000     -76.03730000
