40
Properties=species:S:1:pos:R:3 #=T CELL(abcABC):=T 1.889726e+02=T 90.00000=T Traj:=T positionsangstrom=T Step:=T 0=T Bead:=T pbc="F F F"
C      -42.24810000     -36.75430000     -71.67050000
C      -43.62000000     -36.55440000     -71.41120000
C      -44.51980000     -36.04350000     -72.40360000
C      -43.90480000     -35.71750000     -73.59600000
C      -42.53680000     -35.86450000     -73.86720000
C      -41.63980000     -36.30520000     -72.90820000
H      -41.58620000     -37.11360000     -70.79110000
H      -45.65180000     -36.06130000     -72.20470000
H      -42.26020000     -35.43800000     -74.81640000
H      -40.58460000     -36.48620000     -73.17870000
C      -44.79090000     -35.42180000     -74.82230000
H      -45.00610000     -36.24760000     -75.45200000
H      -44.40130000     -34.73730000     -75.55380000
C      -44.23660000     -36.97290000     -70.08000000
H      -45.27730000     -37.21720000     -70.12490000
H      -43.69380000     -37.75040000     -69.66020000
S      -46.48810000     -34.91010000     -74.31220000
S      -43.98290000     -35.70750000     -68.71560000
C      -46.21040000     -33.18880000     -73.46930000
H      -45.15060000     -33.06270000     -73.32920000
H      -46.51310000     -32.51630000     -74.22220000
C      -45.25370000     -34.44060000     -69.06490000
H      -45.60050000     -34.08990000     -68.03680000
H      -46.21400000     -34.87680000     -69.41540000
C      -44.66750000     -33.35370000     -70.01410000
H      -43.64180000     -33.20950000     -69.68560000
H      -44.63750000     -33.63400000     -71.04570000
C      -47.27360000     -33.00860000     -72.42490000
H      -47.07080000     -33.72250000     -71.65320000
H      -48.28850000     -33.17340000     -72.83730000
C      -47.20460000     -31.64580000     -71.70290000
C      -48.05170000     -30.55170000     -72.00170000
C      -46.36480000     -31.32090000     -70.55430000
H      -48.96490000     -30.51160000     -72.74490000
C      -46.54830000     -29.96570000     -70.15120000
C      -45.32600000     -32.00140000     -69.77850000
C      -44.82830000     -31.19030000     -68.77210000
S      -47.80920000     -29.18900000     -70.98240000
S      -45.53120000     -29.54580000     -68.89500000
H      -43.92530000     -31.42970000     -68.21140000
