40
Properties=species:S:1:pos:R:3 #=T CELL(abcABC):=T 1.889726e+02=T 90.00000=T Traj:=T positionsangstrom=T Step:=T 0=T Bead:=T pbc="F F F"
C      -45.35730000     -34.48810000     -75.50850000
C      -46.27310000     -33.68230000     -74.79280000
C      -46.99410000     -34.26740000     -73.74660000
C      -46.91740000     -35.68750000     -73.51790000
C      -45.98290000     -36.43150000     -74.20420000
C      -45.18190000     -35.84890000     -75.19760000
H      -44.88860000     -34.08130000     -76.31660000
H      -47.65760000     -33.58820000     -73.17450000
H      -45.95000000     -37.44860000     -73.97420000
H      -44.42740000     -36.29370000     -75.82800000
C      -47.71480000     -36.23950000     -72.33500000
H      -48.35420000     -37.05250000     -72.62840000
H      -48.32380000     -35.45770000     -71.81250000
C      -46.47880000     -32.21550000     -75.22160000
H      -45.77690000     -31.90340000     -75.95270000
H      -47.45000000     -32.04930000     -75.63950000
S      -46.78850000     -36.99690000     -70.97850000
S      -46.55330000     -30.86860000     -73.89840000
C      -45.45020000     -35.76070000     -70.70130000
H      -44.59070000     -36.21110000     -70.13200000
H      -45.05380000     -35.42880000     -71.68260000
C      -45.22480000     -31.36570000     -72.69810000
H      -44.33730000     -30.68180000     -72.79440000
H      -44.82470000     -32.36950000     -72.85880000
C      -45.86370000     -31.17580000     -71.21710000
H      -46.52840000     -30.29320000     -71.26120000
H      -46.62380000     -31.99690000     -71.13560000
C      -45.95200000     -34.45980000     -69.99510000
H      -46.81720000     -34.66570000     -69.34920000
H      -46.40430000     -33.81920000     -70.81110000
C      -44.92070000     -33.72500000     -69.13860000
C      -44.28080000     -34.39640000     -68.12960000
C      -44.50790000     -32.34100000     -69.25760000
H      -44.34590000     -35.44880000     -67.94130000
C      -43.43910000     -32.03020000     -68.41090000
C      -44.84330000     -31.18210000     -70.10670000
C      -44.05480000     -30.09390000     -69.75280000
S      -43.10480000     -33.39960000     -67.33910000
S      -42.97670000     -30.34760000     -68.39430000
H      -44.02640000     -29.09440000     -70.24820000
