40
Properties=species:S:1:pos:R:3 #=T CELL(abcABC):=T 1.889726e+02=T 90.00000=T Traj:=T positionsangstrom=T Step:=T 0=T Bead:=T pbc="F F F"
C      -46.90160000     -37.02210000     -70.38640000
C      -47.42810000     -35.78530000     -69.99240000
C      -46.77620000     -35.00990000     -69.02620000
C      -45.55540000     -35.45600000     -68.47790000
C      -45.07530000     -36.67470000     -68.91860000
C      -45.77660000     -37.48170000     -69.77750000
H      -47.51730000     -37.59350000     -71.13100000
H      -47.29240000     -34.13860000     -68.58100000
H      -44.16310000     -37.10540000     -68.54170000
H      -45.45220000     -38.51560000     -70.04690000
C      -44.78050000     -34.71060000     -67.43600000
H      -44.02890000     -35.22040000     -66.89630000
H      -45.44100000     -34.29200000     -66.63370000
C      -48.68110000     -35.19190000     -70.69200000
H      -49.58570000     -35.75530000     -70.49070000
H      -48.86400000     -34.14480000     -70.37590000
S      -43.74990000     -33.37130000     -68.23030000
S      -48.47150000     -35.34770000     -72.56000000
C      -44.81680000     -31.98290000     -68.75920000
H      -45.69890000     -31.84370000     -68.05360000
H      -44.18350000     -31.10260000     -68.60210000
C      -46.87620000     -34.54380000     -73.00890000
H      -46.72720000     -34.81590000     -74.05320000
H      -46.04370000     -34.96650000     -72.35800000
C      -46.87050000     -32.99170000     -72.95690000
H      -47.73220000     -32.57160000     -73.53280000
H      -47.09640000     -32.65040000     -71.93370000
C      -45.25280000     -32.14450000     -70.20360000
H      -46.23810000     -31.74100000     -70.49690000
H      -45.36910000     -33.24300000     -70.32080000
C      -44.34750000     -31.54570000     -71.22350000
C      -43.22860000     -30.74040000     -70.99150000
C      -44.56800000     -31.66790000     -72.61730000
H      -42.83820000     -30.58820000     -70.02640000
C      -43.63840000     -31.12020000     -73.37450000
C      -45.60950000     -32.27450000     -73.40190000
C      -45.43100000     -32.08870000     -74.77190000
S      -42.34300000     -30.28720000     -72.54060000
S      -43.91910000     -31.31690000     -75.11920000
H      -46.07670000     -32.38630000     -75.54670000
