40
Properties=species:S:1:pos:R:3 #=T CELL(abcABC):=T 1.889726e+02=T 90.00000=T Traj:=T positionsangstrom=T Step:=T 0=T Bead:=T pbc="F F F"
C      -44.95400000     -35.39390000     -74.18930000
C      -46.05770000     -35.75630000     -73.42010000
C      -45.93230000     -36.45170000     -72.25170000
C      -44.62450000     -36.82640000     -71.79880000
C      -43.52580000     -36.54960000     -72.63300000
C      -43.71980000     -35.86950000     -73.88760000
H      -45.00350000     -34.86630000     -75.21050000
H      -46.78230000     -36.51240000     -71.60820000
H      -42.52860000     -36.89550000     -72.40040000
H      -42.86510000     -35.62350000     -74.47350000
C      -44.42590000     -37.31780000     -70.36120000
H      -43.93380000     -38.32630000     -70.46030000
H      -45.38000000     -37.31780000     -69.85410000
C      -47.40570000     -35.25550000     -74.02350000
H      -47.51120000     -35.94300000     -74.83270000
H      -48.17580000     -35.55040000     -73.24180000
S      -43.29770000     -36.06470000     -69.57440000
S      -47.67810000     -33.50310000     -74.56320000
C      -43.97190000     -34.40030000     -69.92000000
H      -43.21380000     -33.74140000     -69.45330000
H      -43.82070000     -34.31500000     -71.00400000
C      -47.30160000     -32.66990000     -72.90570000
H      -47.74140000     -33.18060000     -72.04840000
H      -47.69380000     -31.69980000     -73.03970000
C      -45.77330000     -32.53340000     -72.71170000
H      -45.36190000     -33.52910000     -72.35690000
H      -45.48940000     -32.32250000     -73.71250000
C      -45.46860000     -34.06480000     -69.68600000
H      -45.83020000     -34.65260000     -68.89210000
H      -45.98730000     -34.32180000     -70.62570000
C      -45.62000000     -32.60810000     -69.31600000
C      -45.77350000     -32.12280000     -68.00830000
C      -45.38410000     -31.57120000     -70.28950000
H      -45.74560000     -32.66830000     -67.08230000
C      -45.12110000     -30.31260000     -69.66040000
C      -45.32810000     -31.42510000     -71.74170000
C      -44.99380000     -30.15290000     -72.12050000
S      -45.39300000     -30.42720000     -67.90220000
S      -44.84240000     -28.99200000     -70.76350000
H      -44.77330000     -29.76090000     -73.14450000
