40
Properties=species:S:1:pos:R:3 #=T CELL(abcABC):=T 1.889726e+02=T 90.00000=T Traj:=T positionsangstrom=T Step:=T 0=T Bead:=T pbc="F F F"
C      -45.20130000     -35.93930000     -74.61350000
C      -46.16870000     -35.94460000     -73.57260000
C      -45.75170000     -36.26500000     -72.24650000
C      -44.41410000     -36.61710000     -71.95100000
C      -43.47250000     -36.40970000     -72.99300000
C      -43.86270000     -36.03900000     -74.26020000
H      -45.55820000     -35.66610000     -75.55010000
H      -46.51440000     -36.28280000     -71.42470000
H      -42.44630000     -36.58590000     -72.64740000
H      -42.97000000     -36.14280000     -75.00870000
C      -43.95280000     -37.19890000     -70.58340000
H      -43.17130000     -37.88970000     -70.72270000
H      -44.77540000     -37.84290000     -70.15990000
C      -47.59080000     -35.60060000     -73.83120000
H      -47.97370000     -36.18790000     -74.73900000
H      -48.16810000     -35.78600000     -72.92400000
S      -43.23010000     -35.98220000     -69.34720000
S      -47.77110000     -33.83520000     -74.26740000
C      -43.78960000     -34.30110000     -69.95240000
H      -43.16630000     -33.61680000     -69.37080000
H      -43.53740000     -34.21050000     -71.00480000
C      -46.99010000     -32.81590000     -72.81270000
H      -47.11180000     -33.29700000     -71.87520000
H      -47.59590000     -31.93020000     -72.65710000
C      -45.49140000     -32.50910000     -72.80520000
H      -44.91050000     -33.35990000     -72.84670000
H      -45.26570000     -32.02650000     -73.80550000
C      -45.24500000     -33.99220000     -69.45720000
H      -45.60790000     -34.43210000     -68.50710000
H      -45.85630000     -34.33680000     -70.25280000
C      -45.45700000     -32.49690000     -69.22090000
C      -45.58800000     -31.92460000     -67.96050000
C      -45.42720000     -31.46680000     -70.27160000
H      -45.83300000     -32.42340000     -66.96140000
C      -45.41040000     -30.21970000     -69.66200000
C      -45.31200000     -31.41470000     -71.72280000
C      -45.09150000     -30.16350000     -72.10510000
S      -45.59960000     -30.19860000     -67.95150000
S      -45.11890000     -28.93550000     -70.82250000
H      -45.07970000     -29.90120000     -73.10280000
