40
Properties=species:S:1:pos:R:3 #=T CELL(abcABC):=T 1.889726e+02=T 90.00000=T Traj:=T positionsangstrom=T Step:=T 0=T Bead:=T pbc="F F F"
C      -46.90020000     -37.13620000     -70.21460000
C      -47.38480000     -35.82320000     -70.14990000
C      -46.70090000     -34.96210000     -69.25820000
C      -45.64380000     -35.39720000     -68.47460000
C      -45.22630000     -36.74080000     -68.54250000
C      -45.84340000     -37.57650000     -69.45810000
H      -47.37330000     -37.90900000     -70.80130000
H      -46.94460000     -33.94330000     -69.13890000
H      -44.36960000     -37.19880000     -67.98060000
H      -45.63080000     -38.61380000     -69.48330000
C      -44.91390000     -34.41440000     -67.45370000
H      -44.37060000     -35.03380000     -66.65780000
H      -45.59500000     -33.66010000     -67.06370000
C      -48.67070000     -35.47110000     -70.94330000
H      -49.31930000     -36.31300000     -70.83040000
H      -49.18460000     -34.60830000     -70.59080000
S      -43.57960000     -33.36980000     -68.21500000
S      -48.37210000     -35.39530000     -72.78350000
C      -44.51950000     -31.82940000     -68.69710000
H      -45.29940000     -31.67130000     -67.89240000
H      -43.93340000     -30.87020000     -68.66270000
C      -46.83960000     -34.32450000     -72.96940000
H      -46.45640000     -34.57810000     -73.97550000
H      -46.12860000     -34.69450000     -72.20870000
C      -47.09250000     -32.79540000     -73.01600000
H      -47.83120000     -32.66530000     -73.81030000
H      -47.49780000     -32.29400000     -72.11620000
C      -45.25680000     -31.81750000     -70.02090000
H      -46.18120000     -31.15340000     -69.86260000
H      -45.70420000     -32.78330000     -70.24810000
C      -44.37370000     -31.54970000     -71.18530000
C      -43.03660000     -31.15250000     -70.99970000
C      -44.67510000     -31.70240000     -72.58460000
H      -42.62430000     -30.93300000     -70.08930000
C      -43.60560000     -31.25960000     -73.40280000
C      -45.84850000     -32.01180000     -73.43100000
C      -45.67220000     -31.74580000     -74.76000000
S      -42.20530000     -30.74370000     -72.52120000
S      -44.09070000     -31.13690000     -75.12110000
H      -46.37150000     -32.09420000     -75.55840000
