40
Properties=species:S:1:pos:R:3 #=T CELL(abcABC):=T 1.889726e+02=T 90.00000=T Traj:=T positionsangstrom=T Step:=T 0=T Bead:=T pbc="F F F"
C      -45.07820000     -35.58740000     -74.47440000
C      -46.08050000     -35.79580000     -73.50400000
C      -45.80270000     -36.38830000     -72.26990000
C      -44.51680000     -36.73000000     -71.88580000
C      -43.49050000     -36.40100000     -72.80540000
C      -43.76920000     -35.89280000     -74.06040000
H      -45.36750000     -35.22390000     -75.51500000
H      -46.59480000     -36.68610000     -71.68150000
H      -42.41320000     -36.57000000     -72.47990000
H      -42.94730000     -35.55770000     -74.71770000
C      -44.26560000     -37.21040000     -70.53140000
H      -43.62000000     -38.12270000     -70.46830000
H      -45.15260000     -37.40140000     -69.95990000
C      -47.50760000     -35.45500000     -73.79510000
H      -47.87380000     -36.02500000     -74.67820000
H      -48.22480000     -35.64150000     -73.04510000
S      -43.28660000     -35.98630000     -69.48370000
S      -47.63830000     -33.70240000     -74.32780000
C      -43.98090000     -34.33270000     -69.98400000
H      -43.27370000     -33.66630000     -69.53330000
H      -43.99980000     -34.12520000     -71.05960000
C      -47.13870000     -32.76800000     -72.86290000
H      -47.65250000     -33.27000000     -71.97990000
H      -47.66660000     -31.73300000     -72.94820000
C      -45.64480000     -32.61920000     -72.66460000
H      -45.30610000     -33.51660000     -72.20330000
H      -45.03170000     -32.32950000     -73.54930000
C      -45.40980000     -34.02530000     -69.52820000
H      -45.55050000     -34.64480000     -68.63120000
H      -46.13780000     -34.52030000     -70.21050000
C      -45.53320000     -32.56670000     -69.29750000
C      -45.58370000     -32.10670000     -68.01010000
C      -45.43930000     -31.52060000     -70.28120000
H      -45.31530000     -32.67430000     -67.11190000
C      -45.27650000     -30.24990000     -69.69470000
C      -45.33030000     -31.42970000     -71.70020000
C      -45.12510000     -30.16620000     -72.15540000
S      -45.50930000     -30.32520000     -67.95130000
S      -44.95210000     -28.97600000     -70.83930000
H      -45.00020000     -29.85250000     -73.15650000
