40
Properties=species:S:1:pos:R:3 #=T CELL(abcABC):=T 1.889726e+02=T 90.00000=T Traj:=T positionsangstrom=T Step:=T 0=T Bead:=T pbc="F F F"
C      -43.69880000     -34.98140000     -74.56220000
C      -45.00140000     -34.94800000     -74.12360000
C      -45.33220000     -35.85620000     -73.08720000
C      -44.39760000     -36.76350000     -72.55460000
C      -43.06480000     -36.80970000     -73.02420000
C      -42.75730000     -35.90160000     -74.02180000
H      -43.44870000     -34.20270000     -75.31900000
H      -46.40060000     -35.88630000     -72.74260000
H      -42.20230000     -37.27400000     -72.50560000
H      -41.69440000     -35.71580000     -74.46450000
C      -44.85850000     -37.69730000     -71.38460000
H      -44.05320000     -37.88190000     -70.61270000
H      -45.19760000     -38.69510000     -71.68820000
C      -46.03200000     -34.03760000     -74.70390000
H      -46.21440000     -34.55630000     -75.61410000
H      -46.94560000     -33.99400000     -74.17050000
S      -46.32440000     -36.92040000     -70.54710000
S      -45.44490000     -32.27030000     -74.95530000
C      -45.52800000     -35.36290000     -69.89030000
H      -45.44120000     -35.35990000     -68.72610000
H      -44.54140000     -35.25720000     -70.30640000
C      -45.71680000     -31.69350000     -73.17410000
H      -46.62040000     -32.21430000     -72.88740000
H      -45.78260000     -30.61260000     -73.18350000
C      -44.59980000     -32.06040000     -72.21210000
H      -44.50320000     -33.10380000     -71.96220000
H      -43.68250000     -31.76230000     -72.78050000
C      -46.42750000     -34.15840000     -70.29550000
H      -47.48820000     -34.34280000     -70.23370000
H      -46.20830000     -34.08340000     -71.36490000
C      -46.20290000     -32.95950000     -69.37510000
C      -47.02380000     -32.69050000     -68.25250000
C      -45.39130000     -31.76590000     -69.69050000
H      -47.62160000     -33.28790000     -67.62710000
C      -45.51920000     -30.81640000     -68.64450000
C      -44.76910000     -31.27580000     -70.87810000
C      -44.24660000     -30.04790000     -70.60430000
S      -46.71640000     -31.13110000     -67.47020000
S      -44.72130000     -29.32070000     -69.11840000
H      -43.66110000     -29.48620000     -71.39450000
