40
Properties=species:S:1:pos:R:3 #=T CELL(abcABC):=T 1.889726e+02=T 90.00000=T Traj:=T positionsangstrom=T Step:=T 0=T Bead:=T pbc="F F F"
C      -44.05980000     -35.21170000     -74.63740000
C      -45.30780000     -35.23760000     -74.10720000
C      -45.61830000     -35.81290000     -72.86620000
C      -44.71320000     -36.70220000     -72.30310000
C      -43.44400000     -36.88810000     -72.92610000
C      -43.10410000     -36.08250000     -74.05740000
H      -43.82420000     -34.80950000     -75.56950000
H      -46.62870000     -35.65640000     -72.54250000
H      -42.58360000     -37.56130000     -72.61370000
H      -42.22570000     -36.14110000     -74.66390000
C      -45.19780000     -37.56480000     -71.12200000
H      -44.76190000     -38.51410000     -71.13130000
H      -46.28170000     -37.59160000     -71.21590000
C      -46.42580000     -34.42940000     -74.75230000
H      -46.71140000     -35.04850000     -75.62390000
H      -47.34450000     -34.39370000     -74.12650000
S      -44.99320000     -36.76230000     -69.49350000
S      -45.94970000     -32.72740000     -75.29110000
C      -44.90250000     -34.87640000     -69.76630000
H      -44.20650000     -34.52170000     -69.02870000
H      -44.46950000     -34.81770000     -70.82190000
C      -46.30830000     -31.79740000     -73.68270000
H      -47.26510000     -32.13900000     -73.41820000
H      -46.25020000     -30.73920000     -73.82000000
C      -45.33570000     -32.27710000     -72.45660000
H      -45.75370000     -33.26540000     -72.14490000
H      -44.33330000     -32.50760000     -72.84110000
C      -46.28920000     -34.18100000     -69.53130000
H      -46.82360000     -34.86620000     -68.91850000
H      -46.82360000     -34.02700000     -70.40640000
C      -45.99020000     -32.83960000     -68.99830000
C      -46.21890000     -32.50760000     -67.69220000
C      -45.53310000     -31.72200000     -69.86130000
H      -46.49490000     -33.25180000     -66.95180000
C      -45.39990000     -30.55270000     -69.04670000
C      -45.34500000     -31.34440000     -71.27160000
C      -44.97220000     -30.03330000     -71.42040000
S      -45.78620000     -30.85190000     -67.32720000
S      -44.94840000     -29.15970000     -69.95110000
H      -44.71020000     -29.56650000     -72.39760000
