40
Properties=species:S:1:pos:R:3 #=T CELL(abcABC):=T 1.889726e+02=T 90.00000=T Traj:=T positionsangstrom=T Step:=T 0=T Bead:=T pbc="F F F"
C      -43.69150000     -34.97930000     -74.56320000
C      -45.11330000     -35.02760000     -74.18850000
C      -45.51450000     -35.96050000     -73.22020000
C      -44.56210000     -36.82040000     -72.65670000
C      -43.22100000     -36.78440000     -72.99970000
C      -42.79760000     -35.92620000     -74.02110000
H      -43.47220000     -34.27370000     -75.30370000
H      -46.55190000     -36.00240000     -72.94570000
H      -42.52850000     -37.53420000     -72.52980000
H      -41.74280000     -36.07610000     -74.24790000
C      -44.92910000     -37.73150000     -71.41730000
H      -44.00810000     -38.06810000     -71.06200000
H      -45.51030000     -38.56930000     -71.83350000
C      -46.09130000     -34.10280000     -74.69800000
H      -46.46890000     -34.38010000     -75.76260000
H      -47.01490000     -34.07050000     -74.08380000
S      -46.04130000     -37.03700000     -70.16780000
S      -45.43640000     -32.40280000     -74.94720000
C      -45.53630000     -35.35450000     -69.75200000
H      -45.17550000     -35.33080000     -68.74780000
H      -44.68450000     -35.01210000     -70.34160000
C      -45.59490000     -31.60660000     -73.32780000
H      -46.63260000     -31.83180000     -72.99520000
H      -45.59820000     -30.51700000     -73.49880000
C      -44.54570000     -31.87990000     -72.26440000
H      -44.42000000     -32.94800000     -72.09350000
H      -43.58320000     -31.51640000     -72.62490000
C      -46.57870000     -34.24050000     -70.04100000
H      -47.49650000     -34.46020000     -69.43780000
H      -46.90730000     -34.18700000     -71.07030000
C      -46.21920000     -32.87470000     -69.41670000
C      -46.55030000     -32.80110000     -68.03760000
C      -45.64020000     -31.62090000     -69.88370000
H      -47.13140000     -33.49350000     -67.52390000
C      -45.81540000     -30.63050000     -68.86060000
C      -44.86630000     -31.19150000     -70.97920000
C      -44.31210000     -29.94040000     -70.83760000
S      -46.42440000     -31.17710000     -67.37080000
S      -44.89540000     -29.15920000     -69.34340000
H      -43.75410000     -29.40460000     -71.63470000
