40
Properties=species:S:1:pos:R:3 #=T CELL(abcABC):=T 1.889726e+02=T 90.00000=T Traj:=T positionsangstrom=T Step:=T 0=T Bead:=T pbc="F F F"
C      -44.22250000     -35.40640000     -74.65020000
C      -45.49090000     -35.31360000     -74.08420000
C      -45.85960000     -35.99180000     -72.92300000
C      -44.86230000     -36.72460000     -72.17950000
C      -43.61970000     -36.88210000     -72.80260000
C      -43.29920000     -36.28250000     -74.04280000
H      -43.90010000     -34.80580000     -75.54490000
H      -46.89140000     -35.81010000     -72.63160000
H      -42.88060000     -37.46560000     -72.33090000
H      -42.27700000     -36.30210000     -74.27320000
C      -45.27940000     -37.52940000     -70.96200000
H      -44.79340000     -38.52930000     -71.06990000
H      -46.29410000     -37.83210000     -70.93820000
C      -46.51230000     -34.45700000     -74.89130000
H      -46.49870000     -34.86450000     -75.90940000
H      -47.50550000     -34.54100000     -74.50470000
S      -44.66170000     -36.72940000     -69.41980000
S      -46.10550000     -32.67200000     -75.18390000
C      -44.77060000     -34.85880000     -69.81090000
H      -43.94390000     -34.52410000     -69.11160000
H      -44.44710000     -34.73810000     -70.79490000
C      -46.22130000     -31.92620000     -73.55740000
H      -47.30780000     -31.95790000     -73.33290000
H      -46.04250000     -30.81540000     -73.67280000
C      -45.31910000     -32.39940000     -72.38620000
H      -45.72840000     -33.33340000     -71.96450000
H      -44.29360000     -32.70480000     -72.66970000
C      -46.07330000     -34.25920000     -69.37210000
H      -46.45370000     -34.76670000     -68.45710000
H      -46.87200000     -34.32580000     -70.19470000
C      -45.88080000     -32.79650000     -68.98550000
C      -46.06520000     -32.39760000     -67.69060000
C      -45.49950000     -31.65710000     -69.88560000
H      -46.24620000     -33.03540000     -66.86420000
C      -45.33860000     -30.47940000     -69.15560000
C      -45.26150000     -31.36740000     -71.25300000
C      -45.01360000     -30.04970000     -71.58480000
S      -45.78940000     -30.69530000     -67.45260000
S      -44.97280000     -29.11670000     -70.15530000
H      -44.78100000     -29.66330000     -72.59960000
