40
Properties=species:S:1:pos:R:3 #=T CELL(abcABC):=T 1.889726e+02=T 90.00000=T Traj:=T positionsangstrom=T Step:=T 0=T Bead:=T pbc="F F F"
C      -46.92790000     -36.50980000     -69.96430000
C      -47.77280000     -35.39790000     -69.72900000
C      -47.29930000     -34.42490000     -68.82330000
C      -45.98730000     -34.44050000     -68.25350000
C      -45.25270000     -35.59130000     -68.50780000
C      -45.66910000     -36.64070000     -69.29730000
H      -47.21190000     -37.26470000     -70.64020000
H      -47.81980000     -33.52200000     -68.59900000
H      -44.23730000     -35.70830000     -68.04410000
H      -45.04570000     -37.55980000     -69.55070000
C      -45.48900000     -33.19680000     -67.37940000
H      -45.62880000     -33.46070000     -66.28740000
H      -46.20130000     -32.35050000     -67.64600000
C      -48.98200000     -35.10010000     -70.52970000
H      -49.79200000     -35.80610000     -70.41110000
H      -49.46470000     -34.17290000     -70.20250000
S      -43.76370000     -32.84630000     -67.64340000
S      -48.83770000     -35.12370000     -72.40750000
C      -43.88180000     -32.17530000     -69.34050000
H      -44.88860000     -31.75460000     -69.39550000
H      -43.21210000     -31.30780000     -69.40150000
C      -47.13930000     -34.58150000     -72.81680000
H      -47.15320000     -34.54860000     -73.90540000
H      -46.42940000     -35.32280000     -72.45120000
C      -46.84000000     -33.13500000     -72.37220000
H      -47.76890000     -32.54760000     -72.43890000
H      -46.50510000     -33.17340000     -71.30160000
C      -43.62060000     -33.29180000     -70.38630000
H      -44.40330000     -34.02890000     -70.24520000
H      -42.69710000     -33.81920000     -70.11400000
C      -43.33270000     -32.75400000     -71.75850000
C      -42.10240000     -32.37140000     -72.09820000
C      -44.33450000     -32.24270000     -72.71260000
H      -41.12560000     -32.65580000     -71.63590000
C      -43.69070000     -31.51420000     -73.75270000
C      -45.73180000     -32.52680000     -73.16070000
C      -45.95030000     -31.99990000     -74.37340000
S      -41.92950000     -31.50230000     -73.62770000
S      -44.67550000     -31.10440000     -75.07320000
H      -46.94660000     -32.00960000     -74.80980000
