40
Properties=species:S:1:pos:R:3 #=T CELL(abcABC):=T 1.889726e+02=T 90.00000=T Traj:=T positionsangstrom=T Step:=T 0=T Bead:=T pbc="F F F"
C      -46.88960000     -36.50280000     -69.82890000
C      -47.63470000     -35.34990000     -69.76190000
C      -47.11940000     -34.17370000     -69.14130000
C      -46.01140000     -34.28130000     -68.29510000
C      -45.35770000     -35.48000000     -68.27590000
C      -45.64490000     -36.49330000     -69.15510000
H      -47.26250000     -37.39490000     -70.36170000
H      -47.79320000     -33.34440000     -69.08060000
H      -44.46640000     -35.64570000     -67.65990000
H      -44.92640000     -37.33720000     -69.10520000
C      -45.56690000     -33.22730000     -67.33230000
H      -45.71360000     -33.56420000     -66.32340000
H      -46.11270000     -32.33370000     -67.42260000
C      -48.95580000     -35.24100000     -70.41260000
H      -49.43720000     -36.20080000     -70.20310000
H      -49.53900000     -34.44620000     -69.96130000
S      -43.74110000     -32.79830000     -67.61760000
S      -48.86900000     -35.24330000     -72.37410000
C      -43.38810000     -32.41560000     -69.41630000
H      -43.84860000     -31.47020000     -69.61300000
H      -42.27620000     -32.19000000     -69.46690000
C      -47.27060000     -34.48870000     -72.87100000
H      -47.30560000     -34.45190000     -73.94960000
H      -46.46960000     -35.20910000     -72.61950000
C      -46.85670000     -33.12640000     -72.30230000
H      -47.80030000     -32.50650000     -72.13750000
H      -46.53880000     -33.10890000     -71.24770000
C      -43.84120000     -33.48260000     -70.48400000
H      -44.90670000     -33.69380000     -70.38210000
H      -43.32970000     -34.43830000     -70.30830000
C      -43.42910000     -32.78830000     -71.85940000
C      -42.16310000     -32.34040000     -72.04860000
C      -44.30920000     -32.43440000     -72.92410000
H      -41.36240000     -32.19080000     -71.25800000
C      -43.63150000     -31.75830000     -73.95660000
C      -45.76870000     -32.45210000     -73.13860000
C      -46.15880000     -31.74650000     -74.24500000
S      -41.90130000     -31.40520000     -73.55300000
S      -44.70430000     -31.16890000     -75.18130000
H      -47.22620000     -31.58070000     -74.49960000
