40
Properties=species:S:1:pos:R:3 #=T CELL(abcABC):=T 1.889726e+02=T 90.00000=T Traj:=T positionsangstrom=T Step:=T 0=T Bead:=T pbc="F F F"
C      -42.20530000     -35.96060000     -71.39820000
C      -43.62880000     -36.24470000     -71.30530000
C      -44.48200000     -36.02690000     -72.33480000
C      -43.96130000     -35.50840000     -73.59960000
C      -42.57350000     -35.16000000     -73.62980000
C      -41.70080000     -35.41550000     -72.57370000
H      -41.51510000     -36.23080000     -70.53810000
H      -45.52390000     -36.31340000     -72.39420000
H      -42.23850000     -34.78490000     -74.58110000
H      -40.59280000     -35.34560000     -72.67800000
C      -44.81720000     -35.36900000     -74.82120000
H      -44.95220000     -36.38770000     -75.24230000
H      -44.42030000     -34.75850000     -75.65540000
C      -44.18170000     -36.80410000     -69.93070000
H      -45.17990000     -36.99270000     -70.05170000
H      -43.73870000     -37.77540000     -69.65830000
S      -46.52200000     -34.88190000     -74.61530000
S      -43.80630000     -35.69680000     -68.59970000
C      -46.20880000     -33.43840000     -73.50580000
H      -45.18830000     -33.45780000     -73.24290000
H      -46.47370000     -32.53840000     -74.06870000
C      -45.06050000     -34.37570000     -69.01690000
H      -45.24690000     -33.76910000     -68.17110000
H      -45.95690000     -34.82840000     -69.29550000
C      -44.59330000     -33.37840000     -70.14870000
H      -43.47050000     -33.39590000     -70.06400000
H      -44.90120000     -33.62240000     -71.13900000
C      -47.09490000     -33.39320000     -72.26700000
H      -46.95060000     -34.21040000     -71.63330000
H      -48.16480000     -33.46500000     -72.66830000
C      -47.21330000     -32.03750000     -71.60910000
C      -48.29750000     -31.21800000     -71.82670000
C      -46.25120000     -31.51420000     -70.71540000
H      -49.16180000     -31.50190000     -72.47030000
C      -46.59860000     -30.19580000     -70.30420000
C      -45.15170000     -31.98600000     -69.91730000
C      -44.62780000     -31.01210000     -69.07300000
S      -48.17040000     -29.75150000     -70.95350000
S      -45.56060000     -29.51730000     -69.03530000
H      -43.78710000     -31.20660000     -68.43660000
