40
Properties=species:S:1:pos:R:3 #=T CELL(abcABC):=T 1.889726e+02=T 90.00000=T Traj:=T positionsangstrom=T Step:=T 0=T Bead:=T pbc="F F F"
C      -47.84840000     -35.96050000     -68.51220000
C      -47.83370000     -34.78560000     -69.27150000
C      -46.96620000     -33.78950000     -68.85530000
C      -46.28430000     -33.85520000     -67.63920000
C      -46.31370000     -35.03580000     -66.86130000
C      -47.06580000     -36.08460000     -67.33520000
H      -48.32600000     -36.77340000     -68.95800000
H      -46.87420000     -32.82830000     -69.43490000
H      -45.66000000     -35.14170000     -65.90330000
H      -46.90690000     -36.99160000     -66.84170000
C      -45.31790000     -32.72130000     -67.30780000
H      -45.10260000     -32.64150000     -66.20180000
H      -45.65910000     -31.76070000     -67.69780000
C      -48.70470000     -34.59620000     -70.50340000
H      -49.74450000     -34.86770000     -70.31020000
H      -48.79570000     -33.57200000     -70.86650000
S      -43.64160000     -33.14710000     -68.12490000
S      -48.16830000     -35.68860000     -71.84400000
C      -43.65150000     -32.25610000     -69.80700000
H      -44.55660000     -31.65300000     -69.95580000
H      -42.89890000     -31.48450000     -69.76840000
C      -46.54710000     -34.95470000     -72.45920000
H      -46.24990000     -35.60540000     -73.30890000
H      -45.76840000     -35.06880000     -71.71650000
C      -46.76490000     -33.45940000     -72.80150000
H      -47.76370000     -33.36680000     -73.41460000
H      -47.02760000     -32.81060000     -71.90160000
C      -43.49570000     -33.34190000     -70.83780000
H      -44.41150000     -33.93120000     -70.67660000
H      -42.64730000     -33.96470000     -70.64870000
C      -43.35730000     -32.72540000     -72.18140000
C      -42.15860000     -32.04830000     -72.40060000
C      -44.27850000     -32.51320000     -73.28950000
H      -41.43690000     -31.78360000     -71.60030000
C      -43.62850000     -31.83810000     -74.35280000
C      -45.68460000     -32.80110000     -73.65320000
C      -45.95890000     -32.46730000     -74.93140000
S      -42.04020000     -31.25240000     -73.94640000
S      -44.65900000     -31.60580000     -75.75690000
H      -46.77060000     -32.92470000     -75.46950000
