40
Properties=species:S:1:pos:R:3 #=T CELL(abcABC):=T 1.889726e+02=T 90.00000=T Traj:=T positionsangstrom=T Step:=T 0=T Bead:=T pbc="F F F"
C      -47.98190000     -35.90250000     -68.45910000
C      -47.99150000     -34.72070000     -69.23080000
C      -47.06510000     -33.68990000     -68.82120000
C      -46.31020000     -33.80790000     -67.62800000
C      -46.29080000     -35.03090000     -66.95660000
C      -47.17380000     -36.05540000     -67.33950000
H      -48.81030000     -36.64230000     -68.67230000
H      -47.00020000     -32.80020000     -69.42540000
H      -45.64190000     -35.19540000     -66.06370000
H      -47.16410000     -36.98550000     -66.77890000
C      -45.21000000     -32.83480000     -67.31540000
H      -45.03550000     -32.80950000     -66.25800000
H      -45.53640000     -31.83220000     -67.65020000
C      -48.88190000     -34.59800000     -70.47320000
H      -49.97400000     -34.84730000     -70.31910000
H      -48.82370000     -33.56020000     -70.79170000
S      -43.49990000     -33.24760000     -68.01710000
S      -48.15040000     -35.74820000     -71.85720000
C      -43.59480000     -32.37950000     -69.65280000
H      -44.44640000     -31.77320000     -69.64470000
H      -42.65760000     -31.79220000     -69.52190000
C      -46.51470000     -34.97970000     -72.25680000
H      -46.09890000     -35.43020000     -73.14590000
H      -45.87640000     -35.29960000     -71.38940000
C      -46.48790000     -33.42800000     -72.45840000
H      -47.49770000     -33.17770000     -72.72560000
H      -46.25820000     -32.96910000     -71.53200000
C      -43.61400000     -33.23830000     -70.89100000
H      -44.54600000     -33.81040000     -70.87630000
H      -42.87510000     -34.03830000     -70.73620000
C      -43.28950000     -32.46650000     -72.25740000
C      -42.06370000     -31.85150000     -72.61960000
C      -44.23430000     -32.31970000     -73.30370000
H      -41.22750000     -31.66690000     -71.90970000
C      -43.73380000     -31.70150000     -74.43900000
C      -45.57610000     -32.76960000     -73.50980000
C      -45.92230000     -32.69860000     -74.83100000
S      -42.08860000     -31.12620000     -74.21470000
S      -44.74640000     -31.84470000     -75.85920000
H      -46.98050000     -32.93260000     -75.09150000
