40
Properties=species:S:1:pos:R:3 #=T CELL(abcABC):=T 1.889726e+02=T 90.00000=T Traj:=T positionsangstrom=T Step:=T 0=T Bead:=T pbc="F F F"
C      -47.86730000     -36.01410000     -68.51800000
C      -47.81470000     -34.84210000     -69.30570000
C      -47.08600000     -33.77010000     -68.78670000
C      -46.15620000     -33.91570000     -67.71410000
C      -46.16140000     -35.10990000     -66.98700000
C      -46.98740000     -36.14730000     -67.39080000
H      -48.53300000     -36.75470000     -68.71070000
H      -46.99320000     -32.84200000     -69.39380000
H      -45.51390000     -35.29740000     -66.09430000
H      -47.06240000     -36.96210000     -66.67330000
C      -45.31670000     -32.80040000     -67.25110000
H      -45.23880000     -32.72190000     -66.17560000
H      -45.61470000     -31.85430000     -67.64240000
C      -48.68030000     -34.71790000     -70.53740000
H      -49.64450000     -35.13410000     -70.28720000
H      -48.71480000     -33.67310000     -70.92760000
S      -43.58130000     -32.88420000     -67.98310000
S      -48.16980000     -35.76570000     -71.96550000
C      -44.00250000     -32.36900000     -69.67880000
H      -45.08540000     -32.06210000     -69.75090000
H      -43.37270000     -31.51660000     -69.96310000
C      -46.57150000     -35.02740000     -72.56030000
H      -46.33380000     -35.55570000     -73.56160000
H      -45.78500000     -35.25250000     -71.87690000
C      -46.70130000     -33.46330000     -72.78650000
H      -47.64660000     -33.22770000     -73.24830000
H      -46.78920000     -33.02240000     -71.86060000
C      -43.84590000     -33.40440000     -70.88430000
H      -44.72850000     -33.97430000     -71.16970000
H      -43.09980000     -34.20010000     -70.57080000
C      -43.41700000     -32.82910000     -72.23310000
C      -42.20340000     -32.17530000     -72.27400000
C      -44.24660000     -32.59750000     -73.41890000
H      -41.27710000     -32.42860000     -71.77800000
C      -43.54160000     -31.86310000     -74.38650000
C      -45.63850000     -32.80510000     -73.73150000
C      -45.96390000     -32.23510000     -74.94370000
S      -41.96540000     -31.34880000     -73.90340000
S      -44.61130000     -31.32920000     -75.65910000
H      -46.86190000     -32.17830000     -75.49000000
