40
Properties=species:S:1:pos:R:3 #=T CELL(abcABC):=T 1.889726e+02=T 90.00000=T Traj:=T positionsangstrom=T Step:=T 0=T Bead:=T pbc="F F F"
C      -48.14510000     -35.91000000     -68.42510000
C      -48.05910000     -34.75060000     -69.17680000
C      -47.02460000     -33.85210000     -68.82650000
C      -46.10660000     -34.09350000     -67.79590000
C      -46.36190000     -35.20140000     -66.90050000
C      -47.41050000     -36.02230000     -67.24370000
H      -48.88440000     -36.64500000     -68.74960000
H      -46.96050000     -32.87590000     -69.26800000
H      -45.79750000     -35.29670000     -66.03230000
H      -47.73780000     -36.85660000     -66.59490000
C      -45.05050000     -33.02380000     -67.32340000
H      -44.98420000     -33.06790000     -66.21010000
H      -45.48400000     -32.02810000     -67.51420000
C      -48.87290000     -34.58290000     -70.42730000
H      -49.92390000     -34.96330000     -70.37760000
H      -49.03290000     -33.51930000     -70.69870000
S      -43.42830000     -33.10780000     -68.04700000
S      -48.19750000     -35.53350000     -71.88190000
C      -43.55440000     -32.07700000     -69.63060000
H      -44.54570000     -31.58460000     -69.63330000
H      -42.83310000     -31.33470000     -69.54700000
C      -46.50660000     -34.90640000     -71.99120000
H      -46.10140000     -35.51150000     -72.87340000
H      -45.89030000     -35.20320000     -71.14330000
C      -46.35650000     -33.34890000     -72.21660000
H      -47.39040000     -33.03990000     -72.47050000
H      -46.16370000     -32.79580000     -71.25120000
C      -43.35530000     -32.99000000     -70.90760000
H      -44.22790000     -33.59340000     -70.92820000
H      -42.55700000     -33.66070000     -70.61540000
C      -43.19740000     -32.28470000     -72.28410000
C      -42.01450000     -31.65920000     -72.77450000
C      -44.21070000     -32.31000000     -73.33280000
H      -41.11610000     -31.46840000     -72.17900000
C      -43.77550000     -31.81580000     -74.56830000
C      -45.49580000     -32.89170000     -73.36840000
C      -46.05870000     -32.80850000     -74.63950000
S      -42.10780000     -31.10620000     -74.42710000
S      -44.89040000     -32.22330000     -75.86790000
H      -46.93230000     -33.32510000     -74.95050000
