40
Properties=species:S:1:pos:R:3 #=T CELL(abcABC):=T 1.889726e+02=T 90.00000=T Traj:=T positionsangstrom=T Step:=T 0=T Bead:=T pbc="F F F"
C      -47.60080000     -35.97540000     -68.33830000
C      -47.67530000     -34.81360000     -69.11430000
C      -46.93650000     -33.68590000     -68.77590000
C      -45.97830000     -33.72210000     -67.71970000
C      -45.71960000     -34.98890000     -67.13110000
C      -46.59740000     -36.09270000     -67.35960000
H      -48.33090000     -36.73570000     -68.46210000
H      -47.19740000     -32.76360000     -69.30380000
H      -44.99900000     -35.10080000     -66.22240000
H      -46.48730000     -37.07230000     -66.90000000
C      -44.99680000     -32.61110000     -67.36280000
H      -44.88050000     -32.50280000     -66.28170000
H      -45.43870000     -31.62360000     -67.58590000
C      -48.75560000     -34.84370000     -70.14740000
H      -49.53500000     -35.43650000     -69.74180000
H      -49.07890000     -33.86900000     -70.45220000
S      -43.36030000     -32.91220000     -68.20640000
S      -48.27020000     -35.73960000     -71.70050000
C      -43.66240000     -32.12750000     -69.83910000
H      -44.68530000     -31.89990000     -69.89290000
H      -43.10670000     -31.19970000     -69.88710000
C      -46.59700000     -35.07520000     -72.24880000
H      -46.41650000     -35.31740000     -73.26930000
H      -45.85410000     -35.69810000     -71.72320000
C      -46.38270000     -33.61430000     -72.09970000
H      -47.32110000     -32.99790000     -71.98820000
H      -45.77090000     -33.49260000     -71.25790000
C      -43.15180000     -33.08920000     -70.98980000
H      -43.57790000     -34.08000000     -70.81380000
H      -42.17600000     -33.28170000     -70.67040000
C      -43.18240000     -32.45610000     -72.31760000
C      -42.18090000     -31.70940000     -72.87510000
C      -44.33230000     -32.51100000     -73.26320000
H      -41.25910000     -31.46330000     -72.40440000
C      -44.03970000     -31.86610000     -74.48800000
C      -45.71420000     -32.94660000     -73.29570000
C      -46.34360000     -32.68710000     -74.50670000
S      -42.43120000     -31.23940000     -74.63100000
S      -45.30190000     -31.95040000     -75.64690000
H      -47.28930000     -32.92740000     -74.95220000
