40
Properties=species:S:1:pos:R:3 #=T CELL(abcABC):=T 1.889726e+02=T 90.00000=T Traj:=T positionsangstrom=T Step:=T 0=T Bead:=T pbc="F F F"
C      -48.01890000     -35.95850000     -68.40620000
C      -47.90750000     -34.72900000     -69.18670000
C      -46.91790000     -33.82280000     -68.75410000
C      -46.06300000     -34.03380000     -67.65150000
C      -46.29660000     -35.20040000     -66.87920000
C      -47.32190000     -36.09100000     -67.21590000
H      -48.73990000     -36.66220000     -68.72140000
H      -46.67100000     -32.93170000     -69.37030000
H      -45.65390000     -35.36300000     -65.96610000
H      -47.41710000     -36.94840000     -66.60500000
C      -45.13190000     -32.89610000     -67.28170000
H      -44.91610000     -32.98280000     -66.18630000
H      -45.54580000     -31.90460000     -67.49810000
C      -48.78770000     -34.55180000     -70.36880000
H      -49.77340000     -34.88320000     -70.15650000
H      -48.86170000     -33.49330000     -70.58020000
S      -43.49490000     -32.96080000     -68.12080000
S      -48.20490000     -35.44790000     -71.95220000
C      -43.71470000     -32.19400000     -69.80570000
H      -44.80820000     -31.90030000     -69.81390000
H      -43.02370000     -31.32470000     -69.75810000
C      -46.43070000     -34.96010000     -71.97350000
H      -46.00400000     -35.63560000     -72.70020000
H      -46.01350000     -35.08770000     -71.00580000
C      -46.30290000     -33.42160000     -72.16780000
H      -47.23350000     -32.89620000     -72.22600000
H      -45.83060000     -33.03930000     -71.35370000
C      -43.08170000     -33.03830000     -70.91560000
H      -43.55430000     -34.05240000     -71.00390000
H      -42.03660000     -33.23890000     -70.64160000
C      -43.14180000     -32.38530000     -72.27950000
C      -42.06070000     -31.65480000     -72.73870000
C      -44.24530000     -32.46510000     -73.29750000
H      -41.16170000     -31.48970000     -72.21430000
C      -43.87050000     -31.87500000     -74.48180000
C      -45.59300000     -32.98450000     -73.38550000
C      -46.02090000     -33.02380000     -74.67890000
S      -42.26940000     -31.23060000     -74.48180000
S      -44.97340000     -32.03180000     -75.81040000
H      -46.91390000     -33.44710000     -75.07770000
