40
Properties=species:S:1:pos:R:3 #=T CELL(abcABC):=T 1.889726e+02=T 90.00000=T Traj:=T positionsangstrom=T Step:=T 0=T Bead:=T pbc="F F F"
C      -47.26600000     -36.23640000     -68.13060000
C      -47.60930000     -35.01430000     -68.80020000
C      -46.69620000     -33.91370000     -68.59240000
C      -45.58080000     -33.98620000     -67.76240000
C      -45.24680000     -35.26160000     -67.16380000
C      -46.13080000     -36.31680000     -67.33580000
H      -47.94470000     -37.16640000     -68.21920000
H      -46.79030000     -32.90150000     -69.09960000
H      -44.47150000     -35.39530000     -66.50700000
H      -45.86060000     -37.27460000     -66.91800000
C      -44.73140000     -32.69050000     -67.55360000
H      -44.60180000     -32.55370000     -66.42820000
H      -45.29670000     -31.82650000     -67.82480000
C      -48.64720000     -34.84320000     -69.90380000
H      -49.62180000     -35.27820000     -69.66310000
H      -48.65850000     -33.74530000     -70.10500000
S      -43.08460000     -32.72270000     -68.38450000
S      -48.12130000     -35.72660000     -71.45940000
C      -43.53560000     -32.03840000     -70.04120000
H      -44.46960000     -31.57930000     -69.79800000
H      -42.74690000     -31.33010000     -70.24720000
C      -46.78310000     -34.79340000     -72.38260000
H      -46.74020000     -35.06730000     -73.48890000
H      -45.83400000     -35.16150000     -71.96390000
C      -47.01450000     -33.21500000     -72.28120000
H      -48.05610000     -33.06360000     -72.48530000
H      -46.83430000     -32.91700000     -71.23270000
C      -43.74210000     -33.14130000     -71.01340000
H      -44.75370000     -33.53880000     -70.84010000
H      -43.16570000     -34.01530000     -70.79410000
C      -43.57180000     -32.73480000     -72.46360000
C      -42.35940000     -32.23200000     -72.87580000
C      -44.60730000     -32.52110000     -73.38750000
H      -41.41320000     -32.22830000     -72.32300000
C      -44.13880000     -31.94210000     -74.57250000
C      -46.12310000     -32.54840000     -73.33730000
C      -46.66830000     -32.16840000     -74.56620000
S      -42.44610000     -31.54800000     -74.54320000
S      -45.43480000     -31.56010000     -75.65900000
H      -47.73710000     -32.14020000     -74.81120000
