40
Properties=species:S:1:pos:R:3 #=T CELL(abcABC):=T 1.889726e+02=T 90.00000=T Traj:=T positionsangstrom=T Step:=T 0=T Bead:=T pbc="F F F"
C      -46.57190000     -36.40350000     -68.97380000
C      -47.12540000     -35.09990000     -69.08120000
C      -46.40500000     -33.97640000     -68.55410000
C      -45.21780000     -34.21190000     -67.87070000
C      -44.68330000     -35.52660000     -67.74780000
C      -45.29000000     -36.57410000     -68.34610000
H      -47.12690000     -37.26840000     -69.42190000
H      -46.78330000     -32.85980000     -68.66730000
H      -43.72850000     -35.62860000     -67.19560000
H      -44.91740000     -37.57160000     -68.18400000
C      -44.48130000     -32.93480000     -67.26590000
H      -44.07960000     -33.32490000     -66.30780000
H      -45.20190000     -32.14640000     -67.10560000
C      -48.53130000     -34.95150000     -69.71750000
H      -49.27380000     -35.65000000     -69.33840000
H      -48.87480000     -33.89360000     -69.68490000
S      -43.00920000     -32.38710000     -68.26100000
S      -48.54580000     -35.47550000     -71.46940000
C      -43.71280000     -32.17860000     -69.99140000
H      -44.68050000     -31.59520000     -69.91920000
H      -42.92920000     -31.54580000     -70.51680000
C      -47.10490000     -34.53210000     -72.11230000
H      -47.14800000     -34.85920000     -73.11260000
H      -46.12040000     -34.92590000     -71.62800000
C      -47.24840000     -32.95300000     -72.14590000
H      -48.25260000     -32.63840000     -72.31760000
H      -47.04380000     -32.49080000     -71.20200000
C      -44.01300000     -33.36560000     -70.87030000
H      -45.02080000     -33.68230000     -70.69250000
H      -43.32380000     -34.18530000     -70.66710000
C      -43.86080000     -33.00320000     -72.37010000
C      -42.59220000     -32.89540000     -72.88610000
C      -44.87390000     -32.42080000     -73.26980000
H      -41.59160000     -32.96580000     -72.42790000
C      -44.33350000     -31.80160000     -74.38040000
C      -46.30540000     -32.32960000     -73.26560000
C      -46.80770000     -31.71980000     -74.42860000
S      -42.51130000     -32.10440000     -74.45830000
S      -45.53740000     -31.06710000     -75.43740000
H      -47.87000000     -31.33870000     -74.45020000
