40
Properties=species:S:1:pos:R:3 #=T CELL(abcABC):=T 1.889726e+02=T 90.00000=T Traj:=T positionsangstrom=T Step:=T 0=T Bead:=T pbc="F F F"
C      -46.76410000     -36.16410000     -68.56010000
C      -47.16820000     -34.91200000     -69.00800000
C      -46.53680000     -33.79610000     -68.47610000
C      -45.47110000     -33.92230000     -67.55330000
C      -45.08120000     -35.16870000     -67.04720000
C      -45.73340000     -36.29150000     -67.57490000
H      -47.14490000     -36.99820000     -69.06680000
H      -46.93390000     -32.88200000     -68.67010000
H      -44.33580000     -35.32840000     -66.31590000
H      -45.44290000     -37.28410000     -67.26230000
C      -44.63350000     -32.67270000     -67.23480000
H      -44.31050000     -32.65160000     -66.19840000
H      -45.28920000     -31.78270000     -67.48770000
C      -48.33560000     -34.74430000     -70.00870000
H      -49.17400000     -35.33620000     -69.63000000
H      -48.65400000     -33.71990000     -70.23270000
S      -43.09090000     -32.88170000     -68.19000000
S      -48.17060000     -35.63820000     -71.65350000
C      -43.36420000     -32.05100000     -69.87160000
H      -44.05840000     -31.23390000     -69.77310000
H      -42.45480000     -31.60340000     -70.22550000
C      -46.81680000     -34.68620000     -72.49410000
H      -46.70000000     -34.98550000     -73.53660000
H      -45.86180000     -34.90000000     -71.94710000
C      -47.23780000     -33.23960000     -72.39860000
H      -48.30640000     -33.31340000     -72.70420000
H      -47.30380000     -32.91730000     -71.38010000
C      -43.94880000     -33.07350000     -70.88220000
H      -44.99260000     -33.23530000     -70.74390000
H      -43.40780000     -34.02330000     -70.81210000
C      -43.79370000     -32.70860000     -72.35630000
C      -42.55340000     -32.65500000     -72.95590000
C      -44.87740000     -32.25370000     -73.27360000
H      -41.63160000     -32.83580000     -72.47050000
C      -44.27490000     -31.79180000     -74.47230000
C      -46.40120000     -32.29850000     -73.30910000
C      -46.80950000     -31.99320000     -74.58560000
S      -42.58100000     -32.09870000     -74.60250000
S      -45.52530000     -31.38680000     -75.61630000
H      -47.80500000     -31.90030000     -74.98930000
