40
Properties=species:S:1:pos:R:3 #=T CELL(abcABC):=T 1.889726e+02=T 90.00000=T Traj:=T positionsangstrom=T Step:=T 0=T Bead:=T pbc="F F F"
C      -46.63010000     -36.22220000     -68.69300000
C      -47.13100000     -35.00360000     -69.10460000
C      -46.48430000     -33.82490000     -68.64090000
C      -45.34820000     -33.97920000     -67.79150000
C      -44.96930000     -35.20620000     -67.25820000
C      -45.68270000     -36.35690000     -67.66910000
H      -47.15760000     -37.08440000     -68.98420000
H      -46.87790000     -32.95530000     -69.10860000
H      -44.03800000     -35.23600000     -66.62880000
H      -45.51690000     -37.36140000     -67.24640000
C      -44.53500000     -32.76250000     -67.31660000
H      -44.19070000     -32.82080000     -66.29670000
H      -45.19620000     -31.90940000     -67.34860000
C      -48.37960000     -34.91790000     -69.93030000
H      -49.22090000     -35.42290000     -69.38550000
H      -48.61410000     -33.84020000     -70.04380000
S      -42.92070000     -32.66490000     -68.19910000
S      -48.15930000     -35.71400000     -71.58300000
C      -43.46480000     -32.12030000     -69.86930000
H      -44.16540000     -31.27370000     -69.62330000
H      -42.51920000     -31.70380000     -70.28470000
C      -47.08290000     -34.45950000     -72.43550000
H      -47.29390000     -34.65810000     -73.53750000
H      -46.07720000     -34.75240000     -72.29560000
C      -47.32260000     -33.00910000     -72.19910000
H      -48.35710000     -32.67650000     -72.34900000
H      -47.04680000     -32.65180000     -71.19350000
C      -44.19140000     -33.15810000     -70.90070000
H      -45.24820000     -33.09990000     -70.63990000
H      -43.93920000     -34.16190000     -70.52350000
C      -43.91380000     -32.88940000     -72.35230000
C      -42.66390000     -32.65830000     -72.82510000
C      -44.99830000     -32.51930000     -73.31570000
H      -41.80570000     -32.85200000     -72.19540000
C      -44.34830000     -32.07930000     -74.48410000
C      -46.39680000     -32.23350000     -73.29280000
C      -46.84230000     -31.63350000     -74.46690000
S      -42.53360000     -32.11780000     -74.51640000
S      -45.49530000     -31.30690000     -75.61120000
H      -47.82720000     -31.61320000     -74.85290000
