40
Properties=species:S:1:pos:R:3 #=T CELL(abcABC):=T 1.889726e+02=T 90.00000=T Traj:=T positionsangstrom=T Step:=T 0=T Bead:=T pbc="F F F"
C      -47.40280000     -36.08670000     -68.21840000
C      -47.52190000     -34.94180000     -69.02880000
C      -46.61100000     -33.84800000     -68.82990000
C      -45.62960000     -33.92820000     -67.83930000
C      -45.46360000     -35.11940000     -67.14500000
C      -46.35820000     -36.15980000     -67.34340000
H      -48.08250000     -37.00050000     -68.32260000
H      -46.79170000     -32.84120000     -69.27670000
H      -44.79500000     -35.14310000     -66.29340000
H      -46.31430000     -36.98710000     -66.61680000
C      -44.80320000     -32.75200000     -67.42060000
H      -44.64220000     -32.89100000     -66.33250000
H      -45.36190000     -31.82920000     -67.65240000
C      -48.70570000     -34.91730000     -69.95710000
H      -49.60360000     -35.44490000     -69.61620000
H      -48.97860000     -33.90080000     -70.17010000
S      -43.08750000     -32.67380000     -68.22180000
S      -48.27280000     -35.76640000     -71.58770000
C      -43.35040000     -32.07810000     -69.97490000
H      -44.21380000     -31.45870000     -70.21660000
H      -42.52830000     -31.47860000     -70.34040000
C      -46.65230000     -35.04860000     -72.02620000
H      -46.34770000     -35.63170000     -72.89250000
H      -45.90920000     -35.24360000     -71.24970000
C      -46.75960000     -33.45840000     -72.21420000
H      -47.78310000     -33.09090000     -72.25080000
H      -46.43140000     -33.00570000     -71.20560000
C      -43.44400000     -33.25000000     -71.02460000
H      -44.29370000     -33.86420000     -70.81110000
H      -42.49920000     -33.79610000     -70.89290000
C      -43.48270000     -32.69900000     -72.42970000
C      -42.34570000     -32.13080000     -72.96800000
C      -44.61390000     -32.42440000     -73.30330000
H      -41.30210000     -32.14640000     -72.55780000
C      -44.20000000     -31.67810000     -74.47340000
C      -46.01660000     -32.85730000     -73.43020000
C      -46.60580000     -32.40460000     -74.59390000
S      -42.45500000     -31.40770000     -74.56600000
S      -45.49970000     -31.60320000     -75.68730000
H      -47.64110000     -32.61340000     -74.84400000
