40
Properties=species:S:1:pos:R:3 #=T CELL(abcABC):=T 1.889726e+02=T 90.00000=T Traj:=T positionsangstrom=T Step:=T 0=T Bead:=T pbc="F F F"
C      -43.25380000     -31.96580000     -68.75080000
C      -44.43090000     -31.22270000     -68.94910000
C      -45.65770000     -31.77290000     -68.45910000
C      -45.75730000     -33.09440000     -68.10640000
C      -44.56050000     -33.86440000     -67.96400000
C      -43.29940000     -33.28770000     -68.25430000
H      -42.40300000     -31.53160000     -69.23000000
H      -46.58000000     -31.20820000     -68.44030000
H      -44.63540000     -35.00630000     -67.79660000
H      -42.38270000     -33.86330000     -68.28120000
C      -47.11500000     -33.65810000     -67.84530000
H      -47.52390000     -33.15720000     -66.95850000
H      -47.01590000     -34.71610000     -67.69220000
C      -44.34380000     -29.92660000     -69.64590000
H      -44.60110000     -29.05600000     -69.04170000
H      -43.29040000     -29.73490000     -69.88240000
S      -48.38100000     -33.45110000     -69.14450000
S      -45.44750000     -29.90470000     -71.15070000
C      -47.67690000     -34.48260000     -70.46960000
H      -47.34760000     -35.54360000     -70.07500000
H      -48.44020000     -34.78850000     -71.20400000
C      -44.57000000     -31.22910000     -72.03290000
H      -44.34510000     -32.08990000     -71.44360000
H      -43.55340000     -30.97430000     -72.24620000
C      -45.23090000     -31.75020000     -73.34560000
H      -46.38160000     -31.70040000     -73.19620000
H      -44.98330000     -31.00200000     -74.12360000
C      -46.46600000     -33.75540000     -71.10970000
H      -45.62730000     -33.53250000     -70.39480000
H      -46.70670000     -32.83500000     -71.65790000
C      -45.74440000     -34.76040000     -71.99550000
C      -45.71190000     -36.16290000     -71.82240000
C      -45.03990000     -34.37980000     -73.19060000
H      -46.21620000     -36.71890000     -71.05760000
C      -44.52640000     -35.48980000     -73.95280000
C      -44.80600000     -33.06930000     -73.84380000
C      -44.12930000     -33.24750000     -75.04510000
S      -44.88190000     -36.99150000     -73.15670000
S      -43.70800000     -34.92880000     -75.43270000
H      -43.87420000     -32.44550000     -75.76840000
