40
Properties=species:S:1:pos:R:3 #=T CELL(abcABC):=T 1.889726e+02=T 90.00000=T Traj:=T positionsangstrom=T Step:=T 0=T Bead:=T pbc="F F F"
C      -44.53860000     -36.20050000     -73.75790000
C      -45.15580000     -36.22930000     -72.48270000
C      -46.47230000     -35.80780000     -72.43630000
C      -47.09760000     -35.23500000     -73.53980000
C      -46.46110000     -35.25180000     -74.78530000
C      -45.22200000     -35.88290000     -74.91970000
H      -43.47310000     -36.60870000     -73.89120000
H      -47.10920000     -35.80050000     -71.52030000
H      -47.00840000     -34.75440000     -75.65940000
H      -44.76880000     -35.85130000     -75.94170000
C      -48.53540000     -34.80110000     -73.37950000
H      -49.11810000     -35.71630000     -73.75550000
H      -48.80680000     -33.96320000     -74.03130000
C      -44.42420000     -36.85720000     -71.30610000
H      -44.73930000     -36.62200000     -70.26980000
H      -44.44810000     -37.94710000     -71.21420000
S      -49.13790000     -34.51460000     -71.71440000
S      -42.64190000     -36.33370000     -71.29780000
C      -48.26850000     -32.99930000     -71.07230000
H      -48.45470000     -32.18630000     -71.78700000
H      -48.83190000     -32.65000000     -70.25360000
C      -42.62630000     -34.42410000     -71.19560000
H      -43.01430000     -34.17320000     -72.18170000
H      -41.57610000     -34.08480000     -71.14170000
C      -43.50210000     -33.94590000     -70.10140000
H      -44.48970000     -34.39710000     -70.10180000
H      -43.15840000     -34.33570000     -69.14300000
C      -46.73210000     -33.08080000     -70.81600000
H      -46.09160000     -33.33290000     -71.69450000
H      -46.48400000     -33.84660000     -70.00320000
C      -46.17250000     -31.81170000     -70.30430000
C      -46.81600000     -30.56600000     -70.34200000
C      -44.73740000     -31.53000000     -70.03610000
H      -47.92250000     -30.51160000     -70.18200000
C      -44.46630000     -30.20270000     -69.89760000
C      -43.55090000     -32.42360000     -69.93590000
C      -42.49890000     -31.63140000     -69.65580000
S      -45.79600000     -29.21760000     -69.90960000
S      -42.82880000     -29.90000000     -69.52850000
H      -41.40160000     -31.90960000     -69.51360000
