40
Properties=species:S:1:pos:R:3 #=T CELL(abcABC):=T 1.889726e+02=T 90.00000=T Traj:=T positionsangstrom=T Step:=T 0=T Bead:=T pbc="F F F"
C      -43.27190000     -31.94420000     -68.88650000
C      -44.40720000     -31.17550000     -68.78140000
C      -45.61660000     -31.71740000     -68.33770000
C      -45.70290000     -33.08110000     -67.93420000
C      -44.53290000     -33.84530000     -67.96120000
C      -43.36810000     -33.29730000     -68.41730000
H      -42.33420000     -31.55570000     -69.18860000
H      -46.55960000     -31.21030000     -68.44920000
H      -44.79640000     -34.80290000     -67.56870000
H      -42.42600000     -33.84390000     -68.54810000
C      -47.06550000     -33.66300000     -67.57030000
H      -47.63480000     -33.25200000     -66.73580000
H      -46.84980000     -34.69810000     -67.13480000
C      -44.54060000     -29.89370000     -69.58350000
H      -45.16180000     -29.15830000     -69.02790000
H      -43.59310000     -29.55030000     -69.94500000
S      -48.25800000     -33.37190000     -68.97640000
S      -45.50790000     -30.15640000     -71.09650000
C      -47.61530000     -34.52060000     -70.26450000
H      -47.43980000     -35.46550000     -69.85260000
H      -48.41130000     -34.48630000     -70.97280000
C      -44.42670000     -31.21080000     -72.18790000
H      -44.07560000     -32.14350000     -71.66360000
H      -43.55010000     -30.57100000     -72.53650000
C      -45.23820000     -31.70000000     -73.42460000
H      -46.28990000     -31.79330000     -73.27600000
H      -45.09880000     -31.04260000     -74.30030000
C      -46.29320000     -33.91240000     -70.91210000
H      -45.56010000     -33.73520000     -70.06830000
H      -46.58910000     -32.92990000     -71.40460000
C      -45.68790000     -34.73830000     -72.05870000
C      -45.67060000     -36.12650000     -71.98220000
C      -45.04570000     -34.32630000     -73.23620000
H      -45.83730000     -36.87110000     -71.23220000
C      -44.55680000     -35.39700000     -74.03270000
C      -44.74250000     -33.04760000     -73.91410000
C      -44.10020000     -33.23410000     -75.11110000
S      -44.98380000     -36.92620000     -73.37150000
S      -43.82980000     -34.93680000     -75.53150000
H      -43.79090000     -32.56630000     -75.90240000
