40
Properties=species:S:1:pos:R:3 #=T CELL(abcABC):=T 1.889726e+02=T 90.00000=T Traj:=T positionsangstrom=T Step:=T 0=T Bead:=T pbc="F F F"
C      -43.30130000     -31.90270000     -68.80870000
C      -44.57680000     -31.24760000     -68.83550000
C      -45.73690000     -31.75940000     -68.25360000
C      -45.72890000     -33.07070000     -67.67650000
C      -44.46050000     -33.65570000     -67.58450000
C      -43.24430000     -33.14490000     -68.13050000
H      -42.41030000     -31.44890000     -69.34080000
H      -46.70620000     -31.29730000     -68.26920000
H      -44.46100000     -34.61270000     -67.18590000
H      -42.21620000     -33.48750000     -68.09710000
C      -47.04330000     -33.66900000     -67.39340000
H      -47.66980000     -33.08810000     -66.76510000
H      -47.06390000     -34.65990000     -66.92570000
C      -44.48800000     -29.82570000     -69.52470000
H      -44.87640000     -29.08220000     -68.88240000
H      -43.40620000     -29.66320000     -69.78240000
S      -48.14070000     -33.72330000     -68.88940000
S      -45.38840000     -29.90020000     -71.20650000
C      -47.26220000     -34.81120000     -70.14230000
H      -46.72740000     -35.55130000     -69.61300000
H      -48.14010000     -35.27940000     -70.75290000
C      -44.61090000     -31.35580000     -72.06320000
H      -44.64800000     -32.20470000     -71.40990000
H      -43.60550000     -30.97920000     -72.23500000
C      -45.34420000     -31.74190000     -73.33840000
H      -46.40120000     -31.85840000     -73.07130000
H      -45.24780000     -30.98090000     -74.15310000
C      -46.30360000     -33.95740000     -71.00130000
H      -45.54440000     -33.69710000     -70.26130000
H      -46.77250000     -33.06840000     -71.38310000
C      -45.75210000     -34.76290000     -72.18530000
C      -45.80740000     -36.18060000     -72.22880000
C      -45.07670000     -34.29950000     -73.37990000
H      -46.25730000     -36.91380000     -71.56710000
C      -44.63460000     -35.39730000     -74.20650000
C      -44.80370000     -33.02600000     -73.90670000
C      -44.20180000     -33.11490000     -75.21890000
S      -45.02500000     -36.94640000     -73.58300000
S      -43.84290000     -34.77120000     -75.63860000
H      -43.75910000     -32.30730000     -75.79540000
