40
Properties=species:S:1:pos:R:3 #=T CELL(abcABC):=T 1.889726e+02=T 90.00000=T Traj:=T positionsangstrom=T Step:=T 0=T Bead:=T pbc="F F F"
C      -46.68520000     -36.41710000     -69.76590000
C      -47.32720000     -35.23990000     -69.26820000
C      -46.58230000     -34.33630000     -68.50470000
C      -45.28970000     -34.65120000     -68.10050000
C      -44.69210000     -35.86630000     -68.49980000
C      -45.41950000     -36.80500000     -69.30910000
H      -47.18400000     -37.03570000     -70.51700000
H      -47.08930000     -33.38510000     -68.20210000
H      -43.60370000     -36.03940000     -68.22340000
H      -44.92500000     -37.67750000     -69.65900000
C      -44.63200000     -33.52540000     -67.24460000
H      -44.37170000     -33.95850000     -66.29130000
H      -45.43420000     -32.79830000     -67.23550000
C      -48.79270000     -34.94870000     -69.75640000
H      -49.33830000     -35.70090000     -69.27020000
H      -49.08830000     -34.00850000     -69.31040000
S      -43.12970000     -32.84940000     -68.03560000
S      -49.05460000     -34.97430000     -71.61220000
C      -43.75320000     -32.23510000     -69.62700000
H      -44.79680000     -31.87010000     -69.51430000
H      -43.18830000     -31.27400000     -69.79070000
C      -47.44540000     -34.52040000     -72.38920000
H      -47.84110000     -34.35260000     -73.43390000
H      -46.69630000     -35.41410000     -72.43940000
C      -46.69760000     -33.32700000     -71.88160000
H      -47.42600000     -32.74770000     -71.43800000
H      -46.09080000     -33.61770000     -71.01670000
C      -43.42420000     -33.20530000     -70.81390000
H      -44.16330000     -34.08110000     -70.86090000
H      -42.43870000     -33.60460000     -70.51500000
C      -43.40750000     -32.47810000     -72.12160000
C      -42.30900000     -31.95620000     -72.68560000
C      -44.56160000     -32.31670000     -72.99080000
H      -41.27370000     -32.06930000     -72.28740000
C      -44.20730000     -31.69770000     -74.18030000
C      -45.96820000     -32.57490000     -72.95670000
C      -46.53150000     -32.15680000     -74.12410000
S      -42.52940000     -31.25240000     -74.27220000
S      -45.47210000     -31.33090000     -75.30220000
H      -47.56770000     -32.44480000     -74.45400000
