40
Properties=species:S:1:pos:R:3 #=T CELL(abcABC):=T 1.889726e+02=T 90.00000=T Traj:=T positionsangstrom=T Step:=T 0=T Bead:=T pbc="F F F"
C      -49.10470000     -32.26420000     -70.95200000
C      -48.52240000     -33.41830000     -71.52240000
C      -47.95540000     -34.35520000     -70.68470000
C      -48.05550000     -34.20260000     -69.26040000
C      -48.82380000     -33.14790000     -68.71320000
C      -49.25510000     -32.12070000     -69.55960000
H      -49.52970000     -31.46990000     -71.56620000
H      -47.33620000     -35.10100000     -71.19000000
H      -48.95810000     -33.04420000     -67.61870000
H      -49.71260000     -31.17330000     -69.24480000
C      -47.47750000     -35.33820000     -68.49850000
H      -47.68070000     -36.28760000     -68.97240000
H      -47.90970000     -35.35320000     -67.47280000
C      -48.57630000     -33.46810000     -73.04700000
H      -48.06820000     -34.35280000     -73.44210000
H      -49.56940000     -33.57570000     -73.45420000
S      -45.62610000     -35.21090000     -68.37420000
S      -47.82050000     -31.99520000     -73.82850000
C      -45.19070000     -33.41620000     -68.46530000
H      -46.00300000     -32.93210000     -68.09830000
H      -44.22530000     -33.30330000     -67.99940000
C      -46.03720000     -32.37510000     -74.04060000
H      -45.78270000     -32.06620000     -75.03350000
H      -45.98570000     -33.48770000     -74.03270000
C      -45.12700000     -31.63150000     -73.00910000
H      -45.03530000     -30.58480000     -73.41740000
H      -45.57690000     -31.67130000     -71.97380000
C      -44.98700000     -33.01010000     -69.93430000
H      -44.80290000     -31.89640000     -69.93960000
H      -45.90130000     -33.13700000     -70.52690000
C      -43.74110000     -33.52470000     -70.63810000
C      -42.85110000     -34.35040000     -69.96830000
C      -43.21400000     -33.11700000     -71.96970000
H      -42.88040000     -34.96090000     -69.13020000
C      -41.90580000     -33.55310000     -72.19510000
C      -43.68880000     -32.21950000     -72.98290000
C      -42.78970000     -32.07500000     -73.97200000
S      -41.35690000     -34.67920000     -70.89950000
S      -41.31090000     -33.02660000     -73.74840000
H      -42.96440000     -31.51670000     -74.91170000
