40
Properties=species:S:1:pos:R:3 #=T CELL(abcABC):=T 1.889726e+02=T 90.00000=T Traj:=T positionsangstrom=T Step:=T 0=T Bead:=T pbc="F F F"
C      -43.74430000     -31.33780000     -68.17490000
C      -45.03970000     -30.94240000     -68.48630000
C      -46.06930000     -31.90840000     -68.39860000
C      -45.81390000     -33.21380000     -67.77400000
C      -44.55750000     -33.41710000     -67.21850000
C      -43.53290000     -32.52090000     -67.47640000
H      -42.89330000     -30.67150000     -68.45950000
H      -47.01710000     -31.93090000     -68.88700000
H      -44.31070000     -34.30820000     -66.62330000
H      -42.50750000     -32.70120000     -67.11350000
C      -46.93990000     -34.27230000     -67.71340000
H      -47.73950000     -33.85940000     -67.04000000
H      -46.71160000     -35.30980000     -67.51600000
C      -45.34050000     -29.65050000     -69.20560000
H      -46.33430000     -29.22640000     -68.91600000
H      -44.56760000     -28.92750000     -69.15690000
S      -48.02530000     -34.18130000     -69.31000000
S      -45.57400000     -29.85700000     -71.07810000
C      -46.80300000     -34.89250000     -70.48040000
H      -45.84230000     -34.47170000     -70.27560000
H      -46.82200000     -35.98180000     -70.36040000
C      -44.85420000     -31.57410000     -71.42280000
H      -45.31210000     -32.28700000     -70.78320000
H      -43.74760000     -31.67400000     -71.18570000
C      -45.14060000     -31.71660000     -72.91730000
H      -46.25570000     -31.77130000     -73.18930000
H      -44.70490000     -30.85810000     -73.51670000
C      -47.24870000     -34.48540000     -71.88100000
H      -47.36000000     -33.42980000     -71.98540000
H      -48.27100000     -34.87870000     -72.06750000
C      -46.22760000     -35.05130000     -72.84250000
C      -46.21590000     -36.39820000     -73.22500000
C      -45.04160000     -34.34420000     -73.41460000
H      -46.85180000     -37.26460000     -72.98290000
C      -44.31560000     -35.15650000     -74.32040000
C      -44.52850000     -33.02410000     -73.55330000
C      -43.45960000     -32.94500000     -74.36660000
S      -44.73660000     -36.86000000     -74.16000000
S      -42.98520000     -34.42820000     -75.16990000
H      -43.14700000     -31.94990000     -74.69750000
