40
Properties=species:S:1:pos:R:3 #=T CELL(abcABC):=T 1.889726e+02=T 90.00000=T Traj:=T positionsangstrom=T Step:=T 0=T Bead:=T pbc="F F F"
C      -43.43560000     -34.21320000     -75.29800000
C      -43.88640000     -34.98250000     -74.25930000
C      -45.30490000     -35.03480000     -74.02110000
C      -46.20880000     -34.31110000     -74.83280000
C      -45.70470000     -33.55800000     -75.87300000
C      -44.33500000     -33.50490000     -76.09990000
H      -42.37110000     -34.15410000     -75.54480000
H      -45.73760000     -35.73370000     -73.35820000
H      -46.39430000     -33.09260000     -76.50910000
H      -43.97770000     -32.91640000     -76.97590000
C      -47.67720000     -34.42830000     -74.50830000
H      -48.05310000     -35.36160000     -74.93370000
H      -48.21320000     -33.63120000     -74.96420000
C      -43.14010000     -36.01780000     -73.49840000
H      -43.38600000     -36.96410000     -73.91440000
H      -42.05810000     -35.93290000     -73.49490000
S      -48.13790000     -34.58890000     -72.66120000
S      -43.76540000     -36.22550000     -71.66330000
C      -47.23990000     -33.35210000     -71.72920000
H      -46.05860000     -33.24890000     -71.91670000
H      -47.58590000     -32.33520000     -72.06290000
C      -43.74950000     -34.48790000     -70.95480000
H      -44.45670000     -33.87300000     -71.53640000
H      -42.74470000     -34.04080000     -71.00350000
C      -44.21430000     -34.56360000     -69.43160000
H      -45.28430000     -34.84930000     -69.42310000
H      -43.70070000     -35.35870000     -68.82090000
C      -47.41190000     -33.53190000     -70.15140000
H      -47.16810000     -34.55920000     -69.82900000
H      -48.42980000     -33.44420000     -69.83730000
C      -46.70640000     -32.40440000     -69.45250000
C      -47.44560000     -31.28830000     -69.07740000
C      -45.32160000     -32.24580000     -69.04240000
H      -48.49620000     -31.03620000     -69.08560000
C      -45.04160000     -31.00330000     -68.54320000
C      -44.16530000     -33.15680000     -68.91770000
C      -43.06340000     -32.52090000     -68.33900000
S      -46.45980000     -30.05060000     -68.41360000
S      -43.39510000     -30.86320000     -67.90770000
H      -42.15990000     -33.03700000     -68.03700000
