40
Properties=species:S:1:pos:R:3 #=T CELL(abcABC):=T 1.889726e+02=T 90.00000=T Traj:=T positionsangstrom=T Step:=T 0=T Bead:=T pbc="F F F"
C      -44.06840000     -31.31730000     -67.99170000
C      -45.34960000     -30.92630000     -68.52670000
C      -46.38200000     -31.84370000     -68.50730000
C      -46.26850000     -33.09550000     -67.82880000
C      -45.06500000     -33.39000000     -67.14730000
C      -43.99520000     -32.49820000     -67.28390000
H      -43.15700000     -30.70150000     -68.08070000
H      -47.22580000     -31.43010000     -68.98150000
H      -44.97760000     -34.31340000     -66.46370000
H      -43.12030000     -32.75530000     -66.75190000
C      -47.40160000     -33.98470000     -67.71260000
H      -48.25440000     -33.42610000     -67.34930000
H      -47.18030000     -34.87090000     -67.18420000
C      -45.35640000     -29.55490000     -69.24950000
H      -46.25560000     -28.94690000     -69.03950000
H      -44.46270000     -28.90240000     -69.14330000
S      -48.12980000     -34.48390000     -69.41960000
S      -45.51010000     -29.75110000     -71.04630000
C      -46.64810000     -34.73860000     -70.55240000
H      -45.98480000     -33.89190000     -70.31640000
H      -46.14380000     -35.70180000     -70.25350000
C      -44.73580000     -31.40920000     -71.48040000
H      -44.83710000     -32.16650000     -70.68600000
H      -43.71240000     -31.29270000     -71.55480000
C      -45.38420000     -31.99420000     -72.84300000
H      -46.38760000     -32.34430000     -72.63120000
H      -45.37260000     -31.22960000     -73.56970000
C      -47.06360000     -34.85260000     -72.01650000
H      -47.54300000     -33.92730000     -72.37900000
H      -47.88860000     -35.50780000     -72.05170000
C      -45.93350000     -35.28730000     -72.94430000
C      -45.80490000     -36.59150000     -73.38830000
C      -44.94480000     -34.49040000     -73.56000000
H      -46.42720000     -37.38380000     -72.95770000
C      -43.97300000     -35.16800000     -74.20830000
C      -44.57320000     -33.01670000     -73.53930000
C      -43.49900000     -32.77820000     -74.24890000
S      -44.35960000     -36.88550000     -74.26330000
S      -42.68510000     -34.19990000     -74.95870000
H      -42.96530000     -31.87440000     -74.43770000
