40
Properties=species:S:1:pos:R:3 #=T CELL(abcABC):=T 1.889726e+02=T 90.00000=T Traj:=T positionsangstrom=T Step:=T 0=T Bead:=T pbc="F F F"
C      -43.49620000     -31.61260000     -68.29220000
C      -44.76280000     -31.20060000     -68.76820000
C      -45.85630000     -31.98810000     -68.46570000
C      -45.79660000     -33.09260000     -67.62040000
C      -44.56720000     -33.36370000     -66.98910000
C      -43.41360000     -32.62110000     -67.35850000
H      -42.59060000     -31.05930000     -68.56810000
H      -46.79560000     -31.86030000     -68.98940000
H      -44.50260000     -34.18380000     -66.20060000
H      -42.43940000     -32.86690000     -66.99700000
C      -47.11900000     -33.79710000     -67.42040000
H      -47.79590000     -33.11400000     -66.87180000
H      -46.98490000     -34.77970000     -66.77920000
C      -45.00370000     -29.87570000     -69.53320000
H      -45.72970000     -29.14140000     -69.05190000
H      -44.03620000     -29.41170000     -69.77590000
S      -47.92990000     -34.25030000     -69.04450000
S      -45.91080000     -30.10880000     -71.13020000
C      -46.55250000     -34.44190000     -70.33860000
H      -45.78870000     -33.59110000     -70.24170000
H      -46.09140000     -35.36580000     -70.08920000
C      -44.72190000     -31.24580000     -71.91650000
H      -44.44320000     -32.07440000     -71.29550000
H      -43.79580000     -30.64020000     -72.25120000
C      -45.42330000     -31.79730000     -73.13530000
H      -46.49010000     -31.98670000     -72.87580000
H      -45.47010000     -31.01590000     -73.92220000
C      -47.20060000     -34.41540000     -71.72430000
H      -47.55590000     -33.36490000     -71.89460000
H      -48.11980000     -35.00060000     -71.67530000
C      -46.15650000     -35.03410000     -72.76750000
C      -46.00570000     -36.42710000     -72.93050000
C      -45.20530000     -34.28230000     -73.57770000
H      -46.52060000     -37.10970000     -72.30450000
C      -44.37670000     -35.22070000     -74.29970000
C      -44.71860000     -32.95050000     -73.75870000
C      -43.57380000     -32.86260000     -74.47230000
S      -44.86040000     -36.87360000     -74.19730000
S      -43.03490000     -34.42020000     -75.16870000
H      -43.04890000     -31.96320000     -74.68690000
