40
Properties=species:S:1:pos:R:3 #=T CELL(abcABC):=T 1.889726e+02=T 90.00000=T Traj:=T positionsangstrom=T Step:=T 0=T Bead:=T pbc="F F F"
C      -43.69250000     -31.33070000     -67.95370000
C      -44.95300000     -30.94330000     -68.40350000
C      -46.02300000     -31.86760000     -68.26700000
C      -45.82580000     -33.17010000     -67.78380000
C      -44.52690000     -33.56710000     -67.36490000
C      -43.55130000     -32.60790000     -67.43660000
H      -42.83170000     -30.72080000     -68.03890000
H      -47.05180000     -31.53220000     -68.50850000
H      -44.41140000     -34.57810000     -66.96450000
H      -42.62210000     -33.00190000     -67.14650000
C      -47.02330000     -34.13250000     -67.73470000
H      -47.80870000     -33.74400000     -66.99090000
H      -46.75350000     -35.05370000     -67.21030000
C      -45.22970000     -29.67430000     -69.17760000
H      -45.90660000     -28.95970000     -68.73740000
H      -44.27190000     -29.04710000     -69.21080000
S      -47.85620000     -34.27020000     -69.26750000
S      -45.75580000     -29.90990000     -70.98570000
C      -46.54230000     -34.72130000     -70.44080000
H      -45.58110000     -34.20850000     -70.28840000
H      -46.34030000     -35.83140000     -70.29390000
C      -44.68490000     -31.20240000     -71.77760000
H      -44.46630000     -32.00170000     -70.99360000
H      -43.65120000     -30.86980000     -72.02610000
C      -45.35390000     -31.76320000     -73.09820000
H      -46.37870000     -31.96510000     -72.82930000
H      -45.32260000     -30.94480000     -73.77390000
C      -47.09130000     -34.32770000     -71.81460000
H      -47.11510000     -33.24690000     -71.82190000
H      -48.12260000     -34.72520000     -71.93140000
C      -46.22440000     -35.01840000     -72.82620000
C      -46.15480000     -36.41160000     -73.03480000
C      -45.07370000     -34.39880000     -73.53510000
H      -46.76190000     -37.26010000     -72.69960000
C      -44.34620000     -35.25730000     -74.33700000
C      -44.61880000     -32.99020000     -73.69650000
C      -43.50390000     -32.91560000     -74.45650000
S      -44.96330000     -36.93920000     -74.20940000
S      -42.97930000     -34.47200000     -75.17410000
H      -42.97750000     -31.95350000     -74.68670000
