40
Properties=species:S:1:pos:R:3 #=T CELL(abcABC):=T 1.889726e+02=T 90.00000=T Traj:=T positionsangstrom=T Step:=T 0=T Bead:=T pbc="F F F"
C      -43.94050000     -31.31210000     -67.96840000
C      -45.16100000     -30.87230000     -68.45200000
C      -46.27650000     -31.72240000     -68.34500000
C      -46.14520000     -33.00180000     -67.91490000
C      -44.92900000     -33.42760000     -67.27270000
C      -43.82540000     -32.56980000     -67.37280000
H      -43.09560000     -30.65810000     -68.13460000
H      -47.24050000     -31.54780000     -68.85700000
H      -44.70280000     -34.33610000     -66.76530000
H      -42.85280000     -32.77760000     -66.87330000
C      -47.30720000     -33.96920000     -67.84930000
H      -48.08440000     -33.45280000     -67.19370000
H      -47.08590000     -34.88860000     -67.27760000
C      -45.30650000     -29.49570000     -69.18300000
H      -46.16070000     -28.97620000     -68.86810000
H      -44.47810000     -28.76850000     -69.04200000
S      -47.95830000     -34.42050000     -69.42830000
S      -45.43880000     -29.73880000     -71.08350000
C      -46.63350000     -35.17180000     -70.48110000
H      -45.64840000     -34.68270000     -70.22260000
H      -46.60050000     -36.22400000     -70.39320000
C      -45.08500000     -31.53190000     -71.50590000
H      -45.79870000     -32.24320000     -70.85410000
H      -44.05130000     -31.83090000     -71.25870000
C      -45.36590000     -31.76940000     -73.00810000
H      -46.46720000     -31.84160000     -73.24700000
H      -44.94980000     -30.92630000     -73.63200000
C      -47.05980000     -34.81750000     -71.89210000
H      -47.20120000     -33.68380000     -72.00640000
H      -47.98730000     -35.38940000     -71.98720000
C      -45.98550000     -35.26470000     -72.82960000
C      -45.92480000     -36.57590000     -73.27000000
C      -44.96650000     -34.45320000     -73.44650000
H      -46.65770000     -37.32540000     -73.00100000
C      -44.12540000     -35.18290000     -74.31120000
C      -44.58950000     -33.04070000     -73.45890000
C      -43.53190000     -32.80490000     -74.24890000
S      -44.57570000     -36.83740000     -74.29680000
S      -42.81470000     -34.28050000     -74.95530000
H      -42.99040000     -31.93200000     -74.41260000
