40
Properties=species:S:1:pos:R:3 #=T CELL(abcABC):=T 1.889726e+02=T 90.00000=T Traj:=T positionsangstrom=T Step:=T 0=T Bead:=T pbc="F F F"
C      -49.00450000     -32.03140000     -70.84100000
C      -48.59570000     -33.17490000     -71.54920000
C      -48.10170000     -34.28520000     -70.82270000
C      -48.05640000     -34.21510000     -69.39140000
C      -48.50290000     -33.12930000     -68.69010000
C      -48.97440000     -32.01960000     -69.44510000
H      -49.47380000     -31.17750000     -71.28510000
H      -47.77870000     -35.19410000     -71.39540000
H      -48.39400000     -33.02060000     -67.60950000
H      -49.27340000     -31.15790000     -68.91180000
C      -47.44760000     -35.40750000     -68.59690000
H      -47.64060000     -36.39070000     -69.00450000
H      -48.05700000     -35.39620000     -67.66770000
C      -48.93900000     -33.39150000     -72.98720000
H      -48.86280000     -34.43630000     -73.29400000
H      -50.01260000     -33.12230000     -73.19600000
S      -45.60460000     -35.39860000     -68.27760000
S      -47.78600000     -32.26090000     -73.95630000
C      -45.14460000     -33.62790000     -68.53330000
H      -45.87890000     -32.90500000     -68.04760000
H      -44.17900000     -33.50280000     -68.01850000
C      -46.12660000     -32.88970000     -73.55150000
H      -45.75570000     -33.21720000     -74.49510000
H      -46.17790000     -33.66000000     -72.88890000
C      -45.18050000     -31.76990000     -73.01690000
H      -45.33340000     -30.75380000     -73.48460000
H      -45.57170000     -31.58930000     -71.97380000
C      -45.06380000     -33.07070000     -70.02450000
H      -45.04140000     -31.95480000     -69.91420000
H      -45.93210000     -33.38770000     -70.62940000
C      -43.72440000     -33.55180000     -70.70820000
C      -42.80290000     -34.43390000     -70.12870000
C      -43.20610000     -32.89030000     -71.87040000
H      -43.00440000     -34.99530000     -69.23750000
C      -41.88470000     -33.36400000     -72.18090000
C      -43.73130000     -32.10380000     -72.95210000
C      -42.88220000     -31.99010000     -73.98760000
S      -41.35060000     -34.55300000     -71.06790000
S      -41.30330000     -32.74160000     -73.66430000
H      -42.99590000     -31.57790000     -74.91040000
