40
Properties=species:S:1:pos:R:3 #=T CELL(abcABC):=T 1.889726e+02=T 90.00000=T Traj:=T positionsangstrom=T Step:=T 0=T Bead:=T pbc="F F F"
C      -44.37480000     -31.55560000     -67.60150000
C      -45.40020000     -31.22000000     -68.45830000
C      -46.55750000     -32.05610000     -68.51240000
C      -46.59460000     -33.30740000     -67.84560000
C      -45.59340000     -33.59920000     -66.93890000
C      -44.51670000     -32.70550000     -66.71520000
H      -43.43540000     -30.95200000     -67.55440000
H      -47.34090000     -31.74830000     -69.19740000
H      -45.60170000     -34.46390000     -66.40180000
H      -43.87760000     -32.88510000     -65.82430000
C      -47.77620000     -34.12450000     -68.08140000
H      -48.67570000     -33.63090000     -67.62580000
H      -47.63020000     -35.11630000     -67.73080000
C      -45.33320000     -29.95850000     -69.19890000
H      -45.78690000     -29.08440000     -68.72690000
H      -44.29400000     -29.66890000     -69.39310000
S      -48.30670000     -34.35450000     -69.85490000
S      -46.07370000     -30.03620000     -70.96820000
C      -46.86400000     -35.08820000     -70.79520000
H      -45.95380000     -34.65290000     -70.41890000
H      -46.89350000     -36.13410000     -70.62370000
C      -45.38700000     -31.67130000     -71.48950000
H      -45.94850000     -32.47210000     -70.99230000
H      -44.37320000     -31.78780000     -71.16860000
C      -45.38870000     -31.72580000     -72.99400000
H      -46.43720000     -31.94800000     -73.36240000
H      -45.05470000     -30.78130000     -73.46150000
C      -46.87920000     -34.77910000     -72.27960000
H      -47.05500000     -33.66440000     -72.47210000
H      -47.77310000     -35.27750000     -72.75190000
C      -45.45650000     -35.19990000     -72.96680000
C      -45.08790000     -36.54400000     -73.18850000
C      -44.54390000     -34.22420000     -73.47390000
H      -45.43540000     -37.42160000     -72.68600000
C      -43.49450000     -34.92400000     -74.13140000
C      -44.43740000     -32.78210000     -73.63810000
C      -43.33650000     -32.42090000     -74.37080000
S      -43.64200000     -36.64390000     -74.08570000
S      -42.36130000     -33.85460000     -74.87280000
H      -43.05110000     -31.38490000     -74.62110000
