40
Properties=species:S:1:pos:R:3 #=T CELL(abcABC):=T 1.889726e+02=T 90.00000=T Traj:=T positionsangstrom=T Step:=T 0=T Bead:=T pbc="F F F"
C      -42.83020000     -32.19970000     -73.79340000
C      -43.28880000     -33.50040000     -73.87350000
C      -44.60030000     -33.77640000     -74.25370000
C      -45.40030000     -32.68190000     -74.56760000
C      -45.02600000     -31.35540000     -74.45560000
C      -43.68450000     -31.10780000     -74.03690000
H      -41.82870000     -31.94840000     -73.44350000
H      -45.05840000     -34.73380000     -74.36820000
H      -45.72020000     -30.57140000     -74.58690000
H      -43.38420000     -30.13710000     -73.86720000
C      -46.81110000     -32.97550000     -75.02290000
H      -46.80330000     -33.61550000     -75.94480000
H      -47.38210000     -32.02540000     -75.34100000
C      -42.25960000     -34.58000000     -73.61620000
H      -41.81160000     -34.96100000     -74.49060000
H      -41.47740000     -34.16490000     -72.99420000
S      -47.62380000     -33.98880000     -73.73120000
S      -42.96570000     -36.03500000     -72.70620000
C      -47.59210000     -32.96340000     -72.19830000
H      -46.60600000     -32.50190000     -72.14320000
H      -48.30310000     -32.06900000     -72.42310000
C      -43.32300000     -35.32050000     -71.01760000
H      -42.48290000     -34.66940000     -70.83590000
H      -43.23920000     -36.15970000     -70.26050000
C      -44.68890000     -34.64620000     -70.84190000
H      -44.82230000     -34.01880000     -71.71050000
H      -45.47490000     -35.44970000     -70.83390000
C      -47.87190000     -33.84430000     -70.95910000
H      -47.30580000     -34.81480000     -71.13290000
H      -48.91650000     -34.10800000     -70.97750000
C      -47.43940000     -33.20210000     -69.65710000
C      -48.20600000     -32.38820000     -68.86130000
C      -46.01470000     -33.26860000     -69.12020000
H      -49.24300000     -32.16090000     -69.05770000
C      -45.89450000     -32.60900000     -67.88910000
C      -44.72160000     -33.89070000     -69.56770000
C      -43.69260000     -33.69200000     -68.66540000
S      -47.35740000     -31.79500000     -67.42370000
S      -44.19370000     -32.74180000     -67.33520000
H      -42.67170000     -34.03920000     -68.77580000
