40
Properties=species:S:1:pos:R:3 #=T CELL(abcABC):=T 1.889726e+02=T 90.00000=T Traj:=T positionsangstrom=T Step:=T 0=T Bead:=T pbc="F F F"
C      -44.54670000     -31.57750000     -67.62740000
C      -45.58990000     -31.23870000     -68.52500000
C      -46.74650000     -31.98300000     -68.65490000
C      -46.76670000     -33.27590000     -68.04960000
C      -45.68500000     -33.61460000     -67.24540000
C      -44.61840000     -32.77340000     -67.00090000
H      -43.74700000     -30.83100000     -67.58390000
H      -47.56240000     -31.62580000     -69.31820000
H      -45.67690000     -34.59300000     -66.83850000
H      -43.80680000     -33.03090000     -66.35910000
C      -47.90640000     -34.27670000     -68.16380000
H      -48.78830000     -33.86770000     -67.67920000
H      -47.66330000     -35.19570000     -67.61160000
C      -45.48070000     -29.84560000     -69.23120000
H      -46.21600000     -29.15000000     -68.79400000
H      -44.50940000     -29.37260000     -68.99370000
S      -48.35440000     -34.61970000     -69.93220000
S      -45.91700000     -29.93720000     -70.94410000
C      -46.67240000     -34.94280000     -70.57950000
H      -45.92640000     -34.28360000     -70.09740000
H      -46.42980000     -35.98410000     -70.22340000
C      -45.32270000     -31.63070000     -71.47050000
H      -45.99270000     -32.34490000     -71.01490000
H      -44.32490000     -31.79810000     -70.97330000
C      -45.22650000     -31.72890000     -72.98400000
H      -46.15030000     -32.09780000     -73.36830000
H      -44.95970000     -30.70670000     -73.26100000
C      -46.73420000     -34.86460000     -72.12670000
H      -47.16630000     -33.80720000     -72.34520000
H      -47.60360000     -35.40160000     -72.52190000
C      -45.45510000     -35.14780000     -72.87380000
C      -45.17230000     -36.47140000     -73.15010000
C      -44.53210000     -34.18050000     -73.38570000
H      -45.92780000     -37.19500000     -72.87910000
C      -43.49410000     -34.86400000     -74.04010000
C      -44.24630000     -32.73620000     -73.47020000
C      -43.09610000     -32.47460000     -74.16000000
S      -43.67590000     -36.59890000     -74.02620000
S      -42.31550000     -33.83930000     -74.87990000
H      -42.79190000     -31.51710000     -74.42590000
