40
Properties=species:S:1:pos:R:3 #=T CELL(abcABC):=T 1.889726e+02=T 90.00000=T Traj:=T positionsangstrom=T Step:=T 0=T Bead:=T pbc="F F F"
C      -42.83350000     -32.75690000     -74.40220000
C      -43.35440000     -34.00530000     -74.15220000
C      -44.73400000     -34.19890000     -74.22180000
C      -45.59590000     -33.14050000     -74.65240000
C      -44.97510000     -31.94340000     -74.95620000
C      -43.64400000     -31.70850000     -74.80410000
H      -41.76940000     -32.69670000     -74.30590000
H      -45.12860000     -35.21100000     -74.23020000
H      -45.57640000     -31.10210000     -75.32430000
H      -43.15550000     -30.76180000     -74.96630000
C      -47.06950000     -33.41290000     -74.92020000
H      -47.09610000     -34.06730000     -75.78080000
H      -47.48360000     -32.51840000     -75.32340000
C      -42.48260000     -35.21050000     -73.91540000
H      -42.60450000     -35.97340000     -74.74170000
H      -41.40140000     -34.89110000     -73.84250000
S      -48.04170000     -34.13960000     -73.53630000
S      -43.06710000     -36.09510000     -72.39600000
C      -47.39500000     -33.18360000     -72.01220000
H      -46.35510000     -33.21040000     -72.07830000
H      -47.58250000     -32.06560000     -72.13200000
C      -43.06650000     -34.71030000     -71.04410000
H      -42.95320000     -33.83040000     -71.73910000
H      -42.22340000     -34.80470000     -70.29270000
C      -44.45860000     -34.82870000     -70.33930000
H      -45.24310000     -34.92650000     -71.13650000
H      -44.42780000     -35.76440000     -69.83550000
C      -47.85950000     -33.80060000     -70.70940000
H      -47.71440000     -34.88740000     -70.66850000
H      -48.91850000     -33.65240000     -70.69320000
C      -47.23530000     -33.05490000     -69.54810000
C      -47.95730000     -32.01960000     -69.03070000
C      -45.91690000     -33.09620000     -68.92740000
H      -49.02000000     -31.85530000     -69.09880000
C      -45.75250000     -32.17230000     -67.91640000
C      -44.62070000     -33.66800000     -69.27790000
C      -43.65290000     -33.29180000     -68.43010000
S      -47.22190000     -31.24480000     -67.64940000
S      -44.12790000     -32.14210000     -67.24180000
H      -42.59280000     -33.57690000     -68.57900000
