40
Properties=species:S:1:pos:R:3 #=T CELL(abcABC):=T 1.889726e+02=T 90.00000=T Traj:=T positionsangstrom=T Step:=T 0=T Bead:=T pbc="F F F"
C      -42.84700000     -32.30560000     -73.89910000
C      -43.33690000     -33.63260000     -74.02610000
C      -44.67150000     -33.81060000     -74.40670000
C      -45.48410000     -32.74330000     -74.72470000
C      -44.93860000     -31.40940000     -74.72780000
C      -43.61690000     -31.18920000     -74.28710000
H      -41.86110000     -32.15700000     -73.39960000
H      -45.08010000     -34.82820000     -74.44950000
H      -45.54670000     -30.56170000     -75.02460000
H      -43.22540000     -30.19370000     -74.19370000
C      -46.95940000     -32.97750000     -74.90660000
H      -47.13860000     -33.31640000     -75.87550000
H      -47.42270000     -32.03180000     -74.80300000
C      -42.47990000     -34.84710000     -73.78180000
H      -42.22020000     -35.37050000     -74.75050000
H      -41.48580000     -34.41410000     -73.42820000
S      -47.71130000     -34.12250000     -73.65010000
S      -42.97510000     -36.15220000     -72.59030000
C      -47.49650000     -33.04770000     -72.13920000
H      -46.47770000     -32.65300000     -71.98340000
H      -48.16300000     -32.21180000     -72.22090000
C      -43.08420000     -35.29830000     -70.96350000
H      -42.48970000     -34.37520000     -71.06880000
H      -42.72820000     -36.05690000     -70.21400000
C      -44.53780000     -34.80570000     -70.62290000
H      -44.95660000     -34.36070000     -71.46560000
H      -45.05990000     -35.71470000     -70.38800000
C      -47.85270000     -33.87350000     -70.90720000
H      -47.38800000     -34.82790000     -70.98390000
H      -48.90410000     -34.05400000     -70.75910000
C      -47.36830000     -33.11380000     -69.65080000
C      -48.18890000     -32.29030000     -68.84210000
C      -46.03820000     -33.25030000     -69.14930000
H      -49.14280000     -31.76190000     -69.03970000
C      -45.84840000     -32.40750000     -68.02950000
C      -44.75030000     -33.83320000     -69.43100000
C      -43.70640000     -33.59760000     -68.56700000
S      -47.27920000     -31.60060000     -67.45320000
S      -44.24450000     -32.50100000     -67.27410000
H      -42.69470000     -33.98840000     -68.48590000
