40
Properties=species:S:1:pos:R:3 #=T CELL(abcABC):=T 1.889726e+02=T 90.00000=T Traj:=T positionsangstrom=T Step:=T 0=T Bead:=T pbc="F F F"
C      -42.98040000     -32.20080000     -72.80820000
C      -43.25720000     -33.10490000     -73.81820000
C      -44.45260000     -33.07750000     -74.57020000
C      -45.38450000     -32.05160000     -74.23730000
C      -44.97610000     -31.00780000     -73.33610000
C      -43.76880000     -31.08470000     -72.71480000
H      -41.99040000     -32.24310000     -72.38360000
H      -44.72810000     -33.72690000     -75.37340000
H      -45.47000000     -30.13540000     -73.24520000
H      -43.51780000     -30.19160000     -72.15820000
C      -46.82480000     -31.97530000     -74.78370000
H      -46.88130000     -32.14640000     -75.88910000
H      -47.25240000     -30.90000000     -74.61090000
C      -42.34120000     -34.30400000     -73.98980000
H      -42.35150000     -34.70840000     -75.01660000
H      -41.30940000     -34.08330000     -73.80670000
S      -47.99850000     -33.16940000     -73.93330000
S      -42.64470000     -35.82970000     -72.94000000
C      -47.53920000     -32.79040000     -72.20350000
H      -46.46080000     -32.57960000     -72.22160000
H      -48.04930000     -31.92490000     -71.87190000
C      -42.75740000     -35.16820000     -71.26190000
H      -42.12410000     -34.32450000     -71.21290000
H      -42.50770000     -35.87470000     -70.43310000
C      -44.22280000     -34.79030000     -71.08070000
H      -44.46140000     -34.26340000     -71.94540000
H      -44.84800000     -35.68070000     -71.23160000
C      -47.64310000     -34.07380000     -71.36020000
H      -46.90150000     -34.88330000     -71.57720000
H      -48.66230000     -34.55650000     -71.38000000
C      -47.32950000     -33.75590000     -69.93390000
C      -48.23210000     -33.27330000     -69.05330000
C      -45.98010000     -33.69270000     -69.37370000
H      -49.28540000     -33.15630000     -69.16450000
C      -46.02590000     -33.18470000     -68.07510000
C      -44.63800000     -34.14790000     -69.73270000
C      -43.79320000     -33.92850000     -68.67630000
S      -47.56050000     -32.75860000     -67.54710000
S      -44.48060000     -33.03560000     -67.32530000
H      -42.72140000     -34.01880000     -68.72100000
