40
Properties=species:S:1:pos:R:3 #=T CELL(abcABC):=T 1.889726e+02=T 90.00000=T Traj:=T positionsangstrom=T Step:=T 0=T Bead:=T pbc="F F F"
C      -42.60130000     -31.95940000     -72.62970000
C      -43.01000000     -32.72310000     -73.71750000
C      -44.35400000     -32.58430000     -74.17720000
C      -45.14760000     -31.54420000     -73.69540000
C      -44.69950000     -30.78680000     -72.59390000
C      -43.43040000     -31.00180000     -72.09220000
H      -41.53500000     -31.99230000     -72.30360000
H      -44.62380000     -33.28600000     -74.96350000
H      -45.30780000     -29.93080000     -72.26880000
H      -42.94710000     -30.36990000     -71.24280000
C      -46.55370000     -31.40170000     -74.15420000
H      -46.57040000     -31.17730000     -75.18050000
H      -46.98460000     -30.57920000     -73.56540000
C      -42.13420000     -33.85800000     -74.17200000
H      -42.22550000     -34.02600000     -75.21770000
H      -41.08810000     -33.60700000     -73.97070000
S      -47.59840000     -32.93150000     -73.99670000
S      -42.64240000     -35.46810000     -73.29410000
C      -47.86920000     -32.92360000     -72.19460000
H      -47.09900000     -32.19090000     -71.80120000
H      -48.82760000     -32.49640000     -71.90240000
C      -43.03390000     -34.98670000     -71.47550000
H      -42.39270000     -34.20310000     -71.10870000
H      -42.63290000     -35.85560000     -70.96970000
C      -44.46730000     -34.57830000     -71.36670000
H      -44.56680000     -33.71280000     -72.02970000
H      -45.09830000     -35.39360000     -71.82030000
C      -47.70840000     -34.29470000     -71.54880000
H      -46.98460000     -34.89210000     -72.07750000
H      -48.63960000     -34.83860000     -71.63260000
C      -47.46520000     -34.06990000     -70.09220000
C      -48.48530000     -33.67870000     -69.25480000
C      -46.17760000     -33.99000000     -69.45120000
H      -49.58760000     -33.72380000     -69.43540000
C      -46.23600000     -33.65930000     -68.13280000
C      -44.86360000     -34.23500000     -69.94530000
C      -43.87920000     -34.02110000     -68.97700000
S      -47.87260000     -33.42520000     -67.57480000
S      -44.56960000     -33.55460000     -67.43630000
H      -42.81080000     -34.14720000     -69.01400000
