40
Properties=species:S:1:pos:R:3 #=T CELL(abcABC):=T 1.889726e+02=T 90.00000=T Traj:=T positionsangstrom=T Step:=T 0=T Bead:=T pbc="F F F"
C      -42.65900000     -31.94450000     -72.71220000
C      -43.02250000     -32.94550000     -73.62580000
C      -44.34560000     -32.77930000     -74.15720000
C      -45.22260000     -31.75470000     -73.74620000
C      -44.80710000     -30.93410000     -72.64680000
C      -43.45410000     -31.00190000     -72.16340000
H      -41.61660000     -31.96450000     -72.29520000
H      -44.67170000     -33.55000000     -74.89470000
H      -45.47340000     -30.17850000     -72.19250000
H      -43.05890000     -30.39130000     -71.30620000
C      -46.53010000     -31.51710000     -74.43570000
H      -46.42130000     -31.62030000     -75.57030000
H      -46.96070000     -30.56990000     -74.26410000
C      -42.17160000     -34.03510000     -74.20560000
H      -42.61070000     -34.35660000     -75.17490000
H      -41.06940000     -33.75380000     -74.27140000
S      -47.78750000     -32.92720000     -74.04480000
S      -42.32090000     -35.61750000     -73.13920000
C      -48.02890000     -32.81930000     -72.21870000
H      -47.29660000     -32.14400000     -71.74820000
H      -48.93350000     -32.30170000     -71.90480000
C      -42.87850000     -34.99650000     -71.46420000
H      -42.50110000     -34.02270000     -71.23050000
H      -42.41840000     -35.73300000     -70.72720000
C      -44.38850000     -34.82200000     -71.31690000
H      -44.67040000     -34.22670000     -72.17310000
H      -44.96220000     -35.77420000     -71.37150000
C      -47.88030000     -34.18190000     -71.50200000
H      -47.31260000     -34.85550000     -72.12630000
H      -48.89230000     -34.66320000     -71.48570000
C      -47.48730000     -33.98740000     -70.07350000
C      -48.40080000     -33.75120000     -69.07160000
C      -46.18060000     -33.86480000     -69.53940000
H      -49.47330000     -33.97950000     -69.17770000
C      -46.20480000     -33.40400000     -68.20800000
C      -44.85040000     -34.21340000     -69.94310000
C      -43.93800000     -33.91470000     -68.93940000
S      -47.75400000     -33.21590000     -67.54420000
S      -44.65520000     -33.35480000     -67.45060000
H      -42.85950000     -33.93450000     -68.94360000
