40
Properties=species:S:1:pos:R:3 #=T CELL(abcABC):=T 1.889726e+02=T 90.00000=T Traj:=T positionsangstrom=T Step:=T 0=T Bead:=T pbc="F F F"
C      -42.51680000     -31.71720000     -72.59640000
C      -42.97580000     -32.52920000     -73.66080000
C      -44.21070000     -32.29460000     -74.20590000
C      -45.13500000     -31.43210000     -73.58580000
C      -44.66710000     -30.57560000     -72.60440000
C      -43.38230000     -30.71500000     -72.07380000
H      -41.55890000     -32.00200000     -72.18590000
H      -44.61290000     -32.88610000     -75.01140000
H      -45.38560000     -29.91880000     -72.14740000
H      -43.13280000     -30.08790000     -71.16970000
C      -46.45270000     -31.34650000     -74.25560000
H      -46.29180000     -31.06560000     -75.30500000
H      -47.02520000     -30.49620000     -73.68790000
C      -42.15080000     -33.79160000     -74.15560000
H      -42.15290000     -33.87180000     -75.30240000
H      -41.10880000     -33.80660000     -73.82520000
S      -47.38970000     -32.89440000     -74.07540000
S      -42.91510000     -35.38380000     -73.50660000
C      -47.61570000     -32.84390000     -72.21890000
H      -46.69860000     -32.46270000     -71.87460000
H      -48.52590000     -32.21760000     -72.01440000
C      -43.01930000     -34.97350000     -71.72680000
H      -42.29860000     -34.16440000     -71.47970000
H      -42.86580000     -35.88620000     -71.18920000
C      -44.46580000     -34.70570000     -71.28940000
H      -44.87780000     -33.85580000     -71.89320000
H      -45.09190000     -35.50720000     -71.58930000
C      -47.75730000     -34.25190000     -71.57270000
H      -47.01570000     -34.93690000     -72.02630000
H      -48.82170000     -34.57540000     -71.72350000
C      -47.49490000     -34.18090000     -70.08740000
C      -48.47340000     -34.00020000     -69.10980000
C      -46.17610000     -34.17140000     -69.41980000
H      -49.45710000     -33.61180000     -69.37690000
C      -46.28180000     -33.87400000     -68.08320000
C      -44.79700000     -34.30770000     -69.84370000
C      -43.86920000     -34.10080000     -68.79940000
S      -47.90020000     -33.53610000     -67.57000000
S      -44.73550000     -33.76940000     -67.28480000
H      -42.84920000     -34.34730000     -68.95890000
