40
Properties=species:S:1:pos:R:3 #=T CELL(abcABC):=T 1.889726e+02=T 90.00000=T Traj:=T positionsangstrom=T Step:=T 0=T Bead:=T pbc="F F F"
C      -42.72550000     -32.14280000     -72.74300000
C      -43.10020000     -33.03790000     -73.69930000
C      -44.36330000     -32.92340000     -74.24880000
C      -45.23250000     -31.86690000     -73.92380000
C      -44.83660000     -30.98810000     -72.90930000
C      -43.56960000     -31.11460000     -72.39980000
H      -41.78600000     -32.14380000     -72.22390000
H      -44.68830000     -33.50790000     -75.12760000
H      -45.51420000     -30.12900000     -72.66620000
H      -43.18650000     -30.37940000     -71.76140000
C      -46.66260000     -31.76390000     -74.48640000
H      -46.81890000     -31.67030000     -75.61860000
H      -47.03740000     -30.78610000     -74.13920000
C      -42.12150000     -34.16470000     -74.04440000
H      -42.18460000     -34.50260000     -75.05550000
H      -41.15090000     -33.76510000     -73.92230000
S      -48.00430000     -32.95860000     -73.94150000
S      -42.26820000     -35.59730000     -72.93400000
C      -47.92050000     -32.73330000     -72.15320000
H      -47.01730000     -32.22090000     -72.02750000
H      -48.86170000     -32.17840000     -71.88880000
C      -42.84160000     -34.98970000     -71.35710000
H      -42.34440000     -34.02760000     -71.11060000
H      -42.54170000     -35.71720000     -70.58610000
C      -44.38370000     -34.91940000     -71.26960000
H      -44.83150000     -34.46600000     -72.18410000
H      -44.72870000     -35.92810000     -71.25870000
C      -47.76160000     -34.10120000     -71.48770000
H      -47.00150000     -34.79160000     -71.92540000
H      -48.70340000     -34.63330000     -71.59690000
C      -47.49460000     -33.95340000     -69.98690000
C      -48.37400000     -33.50510000     -69.09950000
C      -46.15670000     -33.98880000     -69.45060000
H      -49.42730000     -33.37290000     -69.30780000
C      -46.16250000     -33.42930000     -68.11930000
C      -44.80600000     -34.28900000     -69.93890000
C      -43.85610000     -33.92820000     -69.05370000
S      -47.72740000     -33.04710000     -67.56550000
S      -44.56700000     -33.14270000     -67.56600000
H      -42.77960000     -33.97590000     -69.13730000
