40
Properties=species:S:1:pos:R:3 #=T CELL(abcABC):=T 1.889726e+02=T 90.00000=T Traj:=T positionsangstrom=T Step:=T 0=T Bead:=T pbc="F F F"
C      -42.76380000     -32.08780000     -72.89730000
C      -43.21370000     -33.18540000     -73.71890000
C      -44.49230000     -33.08160000     -74.27340000
C      -45.40310000     -31.97140000     -73.97220000
C      -44.93960000     -31.03300000     -73.02470000
C      -43.66230000     -31.05270000     -72.51150000
H      -41.80740000     -32.02800000     -72.45950000
H      -44.96830000     -33.84810000     -74.86240000
H      -45.61800000     -30.26630000     -72.58690000
H      -43.43730000     -30.30590000     -71.76970000
C      -46.60360000     -31.87070000     -74.75680000
H      -46.41610000     -32.31170000     -75.65450000
H      -46.90060000     -30.82860000     -74.89820000
C      -42.29980000     -34.26420000     -74.13690000
H      -42.57930000     -34.61290000     -75.18830000
H      -41.24940000     -33.90270000     -74.13730000
S      -47.92150000     -32.95060000     -74.02570000
S      -42.35430000     -35.72390000     -73.01400000
C      -47.68580000     -32.87840000     -72.10960000
H      -46.74840000     -32.28730000     -71.96820000
H      -48.40480000     -32.25120000     -71.58840000
C      -42.92460000     -35.11190000     -71.32930000
H      -42.38140000     -34.09180000     -71.31230000
H      -42.48130000     -35.72430000     -70.60590000
C      -44.41500000     -34.88400000     -71.20290000
H      -44.88000000     -34.25250000     -72.03370000
H      -44.78110000     -35.92190000     -71.21860000
C      -47.85080000     -34.20060000     -71.30050000
H      -47.27560000     -34.98830000     -71.79450000
H      -48.88140000     -34.41020000     -71.36880000
C      -47.41410000     -33.89920000     -69.92050000
C      -48.37280000     -33.46720000     -69.12050000
C      -46.08400000     -33.85180000     -69.38880000
H      -49.37140000     -33.24730000     -69.34610000
C      -46.10910000     -33.33160000     -68.07340000
C      -44.70580000     -34.12850000     -69.84140000
C      -43.78900000     -33.78360000     -68.91190000
S      -47.72360000     -32.84100000     -67.52950000
S      -44.42300000     -33.10680000     -67.38710000
H      -42.73120000     -33.93970000     -68.93830000
