40
Properties=species:S:1:pos:R:3 #=T CELL(abcABC):=T 1.889726e+02=T 90.00000=T Traj:=T positionsangstrom=T Step:=T 0=T Bead:=T pbc="F F F"
C      -42.42850000     -31.30670000     -72.50710000
C      -42.80030000     -32.38850000     -73.36330000
C      -44.13970000     -32.44050000     -73.93190000
C      -44.99980000     -31.40440000     -73.75590000
C      -44.74930000     -30.39110000     -72.83210000
C      -43.45490000     -30.35650000     -72.20220000
H      -41.39900000     -31.34170000     -72.13330000
H      -44.34010000     -33.24960000     -74.64460000
H      -45.54060000     -29.66580000     -72.79540000
H      -43.25620000     -29.53540000     -71.62860000
C      -46.16200000     -31.31640000     -74.61500000
H      -45.97650000     -31.79360000     -75.58460000
H      -46.47920000     -30.28620000     -74.74910000
C      -41.84400000     -33.58580000     -73.55010000
H      -41.44050000     -33.70320000     -74.57910000
H      -40.93820000     -33.43350000     -73.02880000
S      -47.60660000     -32.38400000     -74.04970000
S      -42.52800000     -35.27820000     -73.36040000
C      -47.53330000     -32.25310000     -72.25000000
H      -46.51540000     -31.92540000     -71.99720000
H      -48.34910000     -31.62080000     -71.86380000
C      -43.19200000     -35.35800000     -71.59960000
H      -42.46820000     -34.95580000     -70.85540000
H      -43.30560000     -36.43680000     -71.27170000
C      -44.47290000     -34.59380000     -71.42260000
H      -44.39440000     -33.61850000     -71.87900000
H      -45.25520000     -35.11460000     -71.99020000
C      -47.82060000     -33.67000000     -71.62300000
H      -47.32650000     -34.52620000     -72.20060000
H      -48.94850000     -33.85500000     -71.68560000
C      -47.48670000     -33.73200000     -70.11700000
C      -48.49470000     -33.45860000     -69.16410000
C      -46.29080000     -34.10180000     -69.52510000
H      -49.42410000     -32.96080000     -69.37540000
C      -46.36170000     -34.18910000     -68.13950000
C      -44.92960000     -34.58010000     -69.99630000
C      -44.15680000     -35.04440000     -68.96900000
S      -47.90780000     -33.68650000     -67.54270000
S      -44.98300000     -34.91920000     -67.36350000
H      -43.19140000     -35.46900000     -69.05990000
