40
Properties=species:S:1:pos:R:3 #=T CELL(abcABC):=T 1.889726e+02=T 90.00000=T Traj:=T positionsangstrom=T Step:=T 0=T Bead:=T pbc="F F F"
C      -46.05740000     -31.07950000     -67.87630000
C      -46.85030000     -30.96770000     -69.02240000
C      -47.68920000     -31.98360000     -69.39480000
C      -47.73520000     -33.21940000     -68.72300000
C      -46.97370000     -33.33530000     -67.59140000
C      -46.07650000     -32.27210000     -67.22430000
H      -45.44460000     -30.35940000     -67.58710000
H      -48.14770000     -31.77160000     -70.34740000
H      -47.08900000     -34.21000000     -66.99310000
H      -45.58780000     -32.40900000     -66.28550000
C      -48.69160000     -34.32200000     -69.15550000
H      -49.73660000     -33.95590000     -69.15140000
H      -48.66550000     -35.13230000     -68.47200000
C      -46.55890000     -29.72800000     -69.83630000
H      -47.09810000     -28.74910000     -69.90680000
H      -45.52670000     -29.45780000     -69.50100000
S      -48.61890000     -34.93520000     -70.94940000
S      -46.49980000     -30.18100000     -71.60190000
C      -46.78240000     -35.21700000     -71.23770000
H      -46.26670000     -34.76250000     -70.36830000
H      -46.53360000     -36.29360000     -71.17410000
C      -45.04690000     -31.41590000     -71.58950000
H      -45.29300000     -32.33130000     -71.12740000
H      -44.29810000     -31.11660000     -70.84100000
C      -44.49850000     -31.66210000     -73.03620000
H      -45.31470000     -32.07440000     -73.62660000
H      -44.07560000     -30.76200000     -73.40700000
C      -46.25460000     -34.55260000     -72.59810000
H      -46.38670000     -33.49410000     -72.49900000
H      -46.97020000     -34.86110000     -73.38090000
C      -44.87390000     -35.03750000     -72.98830000
C      -44.51610000     -36.40510000     -72.98950000
C      -43.69850000     -34.19680000     -73.05320000
H      -45.18490000     -37.20160000     -72.85610000
C      -42.52790000     -34.94110000     -73.14640000
C      -43.41820000     -32.79520000     -73.06490000
C      -42.06330000     -32.55260000     -72.98540000
S      -42.80870000     -36.66720000     -73.00870000
S      -41.07910000     -34.01190000     -72.98980000
H      -41.59000000     -31.55400000     -72.91750000
