40
Properties=species:S:1:pos:R:3 #=T CELL(abcABC):=T 1.889726e+02=T 90.00000=T Traj:=T positionsangstrom=T Step:=T 0=T Bead:=T pbc="F F F"
C      -42.56340000     -31.52120000     -72.50270000
C      -42.88790000     -32.46430000     -73.50400000
C      -44.01990000     -32.26290000     -74.24880000
C      -44.94000000     -31.23980000     -73.89940000
C      -44.64010000     -30.25530000     -72.88970000
C      -43.44250000     -30.39820000     -72.26660000
H      -41.61800000     -31.64590000     -72.00120000
H      -44.18430000     -32.91840000     -75.06240000
H      -45.29980000     -29.36480000     -72.77170000
H      -43.09720000     -29.64820000     -71.48580000
C      -46.26580000     -31.28280000     -74.68130000
H      -46.04830000     -31.52200000     -75.71070000
H      -46.86020000     -30.39620000     -74.65620000
C      -42.02620000     -33.64890000     -73.74550000
H      -41.58170000     -33.64520000     -74.70890000
H      -41.22690000     -33.64250000     -72.99820000
S      -47.25300000     -32.68920000     -74.03530000
S      -42.85710000     -35.27650000     -73.40200000
C      -47.29690000     -32.52490000     -72.12830000
H      -46.32070000     -32.30250000     -71.68760000
H      -48.05380000     -31.76030000     -71.89830000
C      -43.23750000     -35.18970000     -71.57130000
H      -42.55640000     -34.35740000     -71.31760000
H      -43.06680000     -36.12760000     -71.05260000
C      -44.71060000     -34.79940000     -71.37740000
H      -44.98020000     -33.93420000     -72.01270000
H      -45.29760000     -35.67180000     -71.67160000
C      -47.92090000     -33.84710000     -71.54940000
H      -47.47680000     -34.69410000     -72.04890000
H      -48.99040000     -33.86260000     -71.77400000
C      -47.67110000     -34.04210000     -70.04600000
C      -48.61320000     -33.77740000     -69.06090000
C      -46.31310000     -34.19960000     -69.43880000
H      -49.68510000     -33.86470000     -69.21590000
C      -46.34500000     -34.10740000     -68.05400000
C      -44.97700000     -34.49300000     -69.91470000
C      -44.00720000     -34.52750000     -68.93610000
S      -47.97320000     -33.79830000     -67.47120000
S      -44.70880000     -34.33540000     -67.31640000
H      -42.94690000     -34.59860000     -69.16310000
