40
Properties=species:S:1:pos:R:3 #=T CELL(abcABC):=T 1.889726e+02=T 90.00000=T Traj:=T positionsangstrom=T Step:=T 0=T Bead:=T pbc="F F F"
C      -49.09180000     -32.00640000     -70.95580000
C      -48.85160000     -33.31360000     -71.56120000
C      -48.29470000     -34.33360000     -70.76500000
C      -48.12630000     -34.16040000     -69.36240000
C      -48.38600000     -32.88220000     -68.73870000
C      -48.84440000     -31.89290000     -69.58120000
H      -49.38730000     -31.27500000     -71.67290000
H      -48.23060000     -35.36370000     -71.13280000
H      -48.01880000     -32.66430000     -67.70150000
H      -49.07570000     -30.90270000     -69.05630000
C      -47.60520000     -35.29280000     -68.52290000
H      -47.82630000     -36.27230000     -68.99750000
H      -47.95780000     -35.27850000     -67.51620000
C      -49.14280000     -33.46760000     -73.07160000
H      -49.08240000     -34.54800000     -73.36570000
H      -50.13400000     -32.94980000     -73.23070000
S      -45.66100000     -35.41880000     -68.33620000
S      -47.90240000     -32.36240000     -73.91310000
C      -45.19870000     -33.56750000     -68.51230000
H      -45.87780000     -32.97240000     -67.89940000
H      -44.33210000     -33.36580000     -67.84570000
C      -46.20510000     -33.00840000     -73.29820000
H      -45.89050000     -33.68930000     -74.07050000
H      -46.39770000     -33.58440000     -72.35900000
C      -45.18720000     -31.80860000     -73.03040000
H      -45.25320000     -31.10660000     -73.81070000
H      -45.48550000     -31.29320000     -72.13040000
C      -44.90440000     -33.13940000     -69.92930000
H      -44.96490000     -32.04010000     -69.98050000
H      -45.78560000     -33.41500000     -70.57250000
C      -43.57200000     -33.51320000     -70.63290000
C      -42.50200000     -34.18370000     -70.00830000
C      -43.16850000     -33.11360000     -71.95750000
H      -42.61980000     -34.56260000     -68.93960000
C      -41.90710000     -33.55350000     -72.28250000
C      -43.72950000     -32.23210000     -72.99050000
C      -42.86150000     -32.07620000     -74.03370000
S      -41.14560000     -34.38220000     -71.01670000
S      -41.25710000     -32.74410000     -73.74610000
H      -43.04010000     -31.27360000     -74.73870000
