40
Properties=species:S:1:pos:R:3 #=T CELL(abcABC):=T 1.889726e+02=T 90.00000=T Traj:=T positionsangstrom=T Step:=T 0=T Bead:=T pbc="F F F"
C      -42.55500000     -31.56440000     -72.33470000
C      -42.85880000     -32.52450000     -73.39990000
C      -44.06700000     -32.43660000     -74.05620000
C      -44.96640000     -31.39420000     -73.77790000
C      -44.52260000     -30.27000000     -73.04870000
C      -43.32450000     -30.37470000     -72.26810000
H      -41.70800000     -31.87170000     -71.78850000
H      -44.34990000     -33.29540000     -74.66030000
H      -45.16440000     -29.40460000     -73.01080000
H      -42.98900000     -29.55060000     -71.63100000
C      -46.29400000     -31.24960000     -74.55230000
H      -46.23820000     -31.11430000     -75.68220000
H      -46.84550000     -30.32850000     -74.30920000
C      -41.84520000     -33.59630000     -73.62120000
H      -41.45350000     -33.63270000     -74.64940000
H      -41.06030000     -33.41330000     -72.84500000
S      -47.55080000     -32.57230000     -74.05160000
S      -42.60280000     -35.33040000     -73.40950000
C      -47.51300000     -32.35370000     -72.18750000
H      -46.47980000     -32.08670000     -71.90610000
H      -47.97660000     -31.44860000     -71.81670000
C      -43.18110000     -35.26520000     -71.68330000
H      -42.34460000     -34.80370000     -71.16050000
H      -43.16960000     -36.32720000     -71.38030000
C      -44.49660000     -34.57090000     -71.44190000
H      -44.50050000     -33.56870000     -71.90970000
H      -45.24640000     -35.15120000     -72.02400000
C      -47.92580000     -33.69840000     -71.53910000
H      -47.37800000     -34.46410000     -72.03900000
H      -49.00970000     -33.85470000     -71.62350000
C      -47.59170000     -33.77500000     -70.07190000
C      -48.57350000     -33.48780000     -69.11820000
C      -46.31810000     -34.18570000     -69.49640000
H      -49.56310000     -33.21550000     -69.41790000
C      -46.41340000     -34.20520000     -68.12810000
C      -44.96960000     -34.56380000     -69.98500000
C      -44.14820000     -34.80710000     -68.91010000
S      -47.94430000     -33.76180000     -67.49260000
S      -44.83410000     -34.57230000     -67.35720000
H      -43.09710000     -35.13150000     -68.96280000
