40
Properties=species:S:1:pos:R:3 #=T CELL(abcABC):=T 1.889726e+02=T 90.00000=T Traj:=T positionsangstrom=T Step:=T 0=T Bead:=T pbc="F F F"
C      -42.34080000     -31.31990000     -72.37470000
C      -42.74570000     -32.22460000     -73.37980000
C      -43.96550000     -32.09450000     -73.93540000
C      -44.85580000     -31.06220000     -73.58000000
C      -44.51890000     -30.12490000     -72.58610000
C      -43.21580000     -30.24030000     -72.08850000
H      -41.46690000     -31.47470000     -71.81100000
H      -44.34210000     -32.83320000     -74.65260000
H      -45.18620000     -29.31130000     -72.37670000
H      -42.88870000     -29.52500000     -71.33570000
C      -46.18590000     -30.87490000     -74.35100000
H      -46.09260000     -30.91340000     -75.49470000
H      -46.60710000     -29.95690000     -74.01970000
C      -41.91650000     -33.39500000     -73.68870000
H      -41.68080000     -33.31400000     -74.76320000
H      -40.98350000     -33.38370000     -73.11040000
S      -47.37300000     -32.30740000     -74.05170000
S      -42.75050000     -35.07680000     -73.50560000
C      -47.17260000     -32.37710000     -72.22760000
H      -46.11030000     -32.22970000     -71.97260000
H      -47.65310000     -31.42720000     -71.84780000
C      -43.29150000     -35.00260000     -71.69340000
H      -42.94090000     -34.04960000     -71.36600000
H      -42.89710000     -35.88120000     -71.13550000
C      -44.78060000     -35.12590000     -71.52130000
H      -45.24590000     -34.23740000     -71.99500000
H      -45.13440000     -36.03440000     -71.98480000
C      -47.82310000     -33.56770000     -71.61260000
H      -47.60160000     -34.44970000     -72.17750000
H      -48.84300000     -33.45050000     -71.74030000
C      -47.46770000     -33.70660000     -70.14630000
C      -48.38830000     -33.26480000     -69.22470000
C      -46.26820000     -34.37840000     -69.48650000
H      -49.20770000     -32.53410000     -69.37400000
C      -46.46370000     -34.51420000     -68.13830000
C      -45.15770000     -35.11810000     -70.04410000
C      -44.46540000     -35.71610000     -69.00530000
S      -47.88560000     -33.66820000     -67.56900000
S      -45.13350000     -35.31270000     -67.40220000
H      -43.44000000     -36.14650000     -69.12500000
