40
Properties=species:S:1:pos:R:3 #=T CELL(abcABC):=T 1.889726e+02=T 90.00000=T Traj:=T positionsangstrom=T Step:=T 0=T Bead:=T pbc="F F F"
C      -46.81920000     -31.15410000     -67.63330000
C      -47.17950000     -31.12790000     -69.02830000
C      -47.79710000     -32.28990000     -69.60470000
C      -48.04190000     -33.39390000     -68.84020000
C      -47.63030000     -33.39450000     -67.49550000
C      -46.96400000     -32.29470000     -66.88800000
H      -46.31100000     -30.29300000     -67.17980000
H      -48.21400000     -32.23760000     -70.57190000
H      -47.87300000     -34.27190000     -66.92010000
H      -46.58780000     -32.40510000     -65.91020000
C      -48.70690000     -34.63760000     -69.42150000
H      -49.75230000     -34.40450000     -69.56870000
H      -48.48280000     -35.43800000     -68.71980000
C      -46.87060000     -29.84900000     -69.81900000
H      -47.78660000     -29.19230000     -69.86850000
H      -45.90240000     -29.44280000     -69.39950000
S      -48.27170000     -35.16650000     -71.23340000
S      -46.66620000     -30.16680000     -71.58390000
C      -46.41390000     -35.28150000     -71.20610000
H      -46.08840000     -34.29770000     -70.71380000
H      -46.16980000     -35.99650000     -70.45310000
C      -45.10770000     -31.12360000     -71.60150000
H      -44.93490000     -31.56780000     -70.57680000
H      -44.20170000     -30.39580000     -71.68610000
C      -45.05930000     -32.14190000     -72.79000000
H      -45.92370000     -32.93020000     -72.74800000
H      -45.38930000     -31.61860000     -73.66180000
C      -45.92980000     -35.53620000     -72.60380000
H      -46.35220000     -34.89450000     -73.39590000
H      -46.18160000     -36.56200000     -72.98480000
C      -44.40050000     -35.39440000     -72.63370000
C      -43.64590000     -36.53360000     -72.57310000
C      -43.57830000     -34.22500000     -72.87870000
H      -43.95070000     -37.57510000     -72.38090000
C      -42.24320000     -34.59080000     -73.10400000
C      -43.74810000     -32.82080000     -72.91250000
C      -42.54770000     -32.17370000     -73.15240000
S      -41.92740000     -36.29320000     -72.90230000
S      -41.14880000     -33.18580000     -73.34210000
H      -42.43260000     -31.07910000     -73.22520000
