40
Properties=species:S:1:pos:R:3 #=T CELL(abcABC):=T 1.889726e+02=T 90.00000=T Traj:=T positionsangstrom=T Step:=T 0=T Bead:=T pbc="F F F"
C      -46.13630000     -36.76190000     -71.53820000
C      -46.58840000     -36.23880000     -70.28500000
C      -45.58830000     -36.00860000     -69.37330000
C      -44.22360000     -36.17300000     -69.66650000
C      -43.86440000     -36.61830000     -70.94720000
C      -44.82560000     -36.93990000     -71.81020000
H      -46.88560000     -36.96940000     -72.26220000
H      -45.83550000     -35.85380000     -68.37380000
H      -42.81550000     -36.87720000     -71.10590000
H      -44.59790000     -37.35010000     -72.74150000
C      -43.08830000     -35.93820000     -68.73350000
H      -42.48100000     -36.81550000     -68.55020000
H      -43.39670000     -35.77280000     -67.72380000
C      -47.97280000     -35.96450000     -69.97380000
H      -48.57350000     -36.91500000     -70.12590000
H      -48.19320000     -35.57080000     -68.99880000
S      -42.00050000     -34.56600000     -69.38160000
S      -48.91220000     -34.82300000     -71.20810000
C      -43.16950000     -33.22340000     -69.77760000
H      -43.78790000     -33.02090000     -68.90190000
H      -42.65990000     -32.31870000     -69.90630000
C      -47.70790000     -33.61350000     -71.75340000
H      -48.19640000     -33.07940000     -72.62740000
H      -46.78020000     -34.07580000     -72.12950000
C      -47.31270000     -32.55380000     -70.71060000
H      -48.21510000     -32.11120000     -70.20520000
H      -46.76140000     -32.95150000     -69.86520000
C      -44.01730000     -33.50650000     -71.12750000
H      -45.01750000     -33.92930000     -71.03730000
H      -43.46760000     -34.25870000     -71.73950000
C      -44.15490000     -32.24130000     -71.95350000
C      -43.02950000     -31.79940000     -72.66060000
C      -45.27110000     -31.35540000     -71.97940000
H      -42.10280000     -32.33150000     -72.78480000
C      -45.10180000     -30.33380000     -72.92090000
C      -46.65010000     -31.41040000     -71.44830000
C      -47.40020000     -30.37130000     -71.96220000
S      -43.54950000     -30.37200000     -73.74090000
S      -46.46530000     -29.33450000     -73.03890000
H      -48.50460000     -30.31360000     -71.87010000
