40
Properties=species:S:1:pos:R:3 #=T CELL(abcABC):=T 1.889726e+02=T 90.00000=T Traj:=T positionsangstrom=T Step:=T 0=T Bead:=T pbc="F F F"
C      -42.11310000     -31.37400000     -72.56710000
C      -42.62740000     -32.27740000     -73.50310000
C      -43.96510000     -32.00440000     -73.97120000
C      -44.70470000     -30.93220000     -73.49880000
C      -44.13270000     -29.99160000     -72.63170000
C      -42.82130000     -30.22710000     -72.16480000
H      -41.12280000     -31.50300000     -72.15070000
H      -44.55710000     -32.69260000     -74.66670000
H      -44.71470000     -29.09810000     -72.40390000
H      -42.38350000     -29.51450000     -71.49960000
C      -46.07690000     -30.73180000     -74.03670000
H      -45.97630000     -30.58610000     -75.05950000
H      -46.63510000     -29.87810000     -73.57360000
C      -41.92880000     -33.49510000     -73.99410000
H      -41.56590000     -33.62120000     -75.03650000
H      -40.93900000     -33.50780000     -73.41440000
S      -47.05930000     -32.28650000     -73.77750000
S      -43.00560000     -34.99780000     -73.61650000
C      -47.21880000     -32.37190000     -71.94060000
H      -46.27250000     -32.36130000     -71.36260000
H      -47.78630000     -31.47160000     -71.59260000
C      -43.56890000     -34.72820000     -71.84730000
H      -43.35170000     -33.65040000     -71.68600000
H      -42.89100000     -35.28380000     -71.20540000
C      -45.01480000     -35.13750000     -71.66720000
H      -45.62400000     -34.37330000     -72.12660000
H      -45.30150000     -36.15450000     -72.10640000
C      -48.01950000     -33.64350000     -71.49030000
H      -47.75690000     -34.52860000     -72.02980000
H      -49.13420000     -33.42980000     -71.53900000
C      -47.71580000     -33.92020000     -70.04140000
C      -48.57980000     -33.52050000     -69.05650000
C      -46.48110000     -34.52890000     -69.53530000
H      -49.63510000     -33.20220000     -69.19520000
C      -46.45120000     -34.53840000     -68.14520000
C      -45.35500000     -35.13290000     -70.17000000
C      -44.48160000     -35.59740000     -69.20530000
S      -47.98590000     -33.86500000     -67.47480000
S      -44.97440000     -35.20120000     -67.52600000
H      -43.63780000     -36.22220000     -69.33290000
