40
Properties=species:S:1:pos:R:3 #=T CELL(abcABC):=T 1.889726e+02=T 90.00000=T Traj:=T positionsangstrom=T Step:=T 0=T Bead:=T pbc="F F F"
C      -46.24720000     -31.45640000     -68.76220000
C      -47.22890000     -31.22210000     -69.66900000
C      -48.11020000     -32.27280000     -70.05870000
C      -48.14280000     -33.50480000     -69.32530000
C      -47.18930000     -33.62080000     -68.27710000
C      -46.26340000     -32.61880000     -68.03710000
H      -45.60540000     -30.67450000     -68.46370000
H      -48.88360000     -32.10940000     -70.86980000
H      -47.38940000     -34.50900000     -67.67250000
H      -45.59790000     -32.82750000     -67.17360000
C      -49.04790000     -34.63890000     -69.63870000
H      -50.03510000     -34.27590000     -69.90340000
H      -48.90230000     -35.46620000     -68.93640000
C      -47.10420000     -29.90380000     -70.52700000
H      -47.84860000     -29.10710000     -70.37330000
H      -46.22880000     -29.49400000     -70.14620000
S      -48.52620000     -35.62450000     -71.20210000
S      -46.88600000     -30.25350000     -72.34760000
C      -46.62570000     -36.00890000     -70.98590000
H      -46.50360000     -36.03410000     -69.98460000
H      -46.35270000     -37.00650000     -71.36220000
C      -45.28830000     -31.29150000     -72.25910000
H      -45.27330000     -31.86230000     -71.33450000
H      -44.44440000     -30.49380000     -72.05680000
C      -44.95430000     -32.11160000     -73.45150000
H      -45.74000000     -32.85130000     -73.59350000
H      -44.94640000     -31.47050000     -74.34930000
C      -45.86910000     -34.83650000     -71.68450000
H      -46.06780000     -33.74920000     -71.27860000
H      -46.14630000     -34.80840000     -72.75230000
C      -44.35500000     -34.89980000     -71.67300000
C      -43.65520000     -35.79100000     -70.87350000
C      -43.45220000     -34.01300000     -72.45360000
H      -44.13220000     -36.59460000     -70.22170000
C      -42.14300000     -34.35040000     -72.25360000
C      -43.62280000     -32.80410000     -73.23590000
C      -42.44240000     -32.31660000     -73.69420000
S      -41.87250000     -35.67180000     -71.11190000
S      -41.08370000     -33.36930000     -73.24770000
H      -42.39030000     -31.46550000     -74.29870000
