40
Properties=species:S:1:pos:R:3 #=T CELL(abcABC):=T 1.889726e+02=T 90.00000=T Traj:=T positionsangstrom=T Step:=T 0=T Bead:=T pbc="F F F"
C      -46.12890000     -31.65730000     -68.98880000
C      -47.30560000     -31.55150000     -69.80800000
C      -48.25220000     -32.54460000     -69.68200000
C      -47.95180000     -33.72980000     -69.00490000
C      -46.87220000     -33.80060000     -68.22830000
C      -45.97260000     -32.75910000     -68.11130000
H      -45.39170000     -30.87250000     -69.02640000
H      -49.10640000     -32.51030000     -70.33820000
H      -46.60180000     -34.67470000     -67.63680000
H      -45.11270000     -32.79480000     -67.41170000
C      -48.85450000     -34.85910000     -69.34040000
H      -49.86610000     -34.50180000     -69.33130000
H      -48.99320000     -35.63160000     -68.60740000
C      -47.67850000     -30.32460000     -70.66620000
H      -48.73250000     -30.20630000     -70.73510000
H      -47.26340000     -29.39640000     -70.24040000
S      -48.50410000     -35.50510000     -71.06270000
S      -47.03010000     -30.47380000     -72.38460000
C      -46.66820000     -35.58780000     -71.18080000
H      -46.26800000     -35.58060000     -70.13250000
H      -46.46760000     -36.54570000     -71.52840000
C      -45.26160000     -31.06980000     -72.07580000
H      -45.21430000     -31.72520000     -71.12500000
H      -44.60720000     -30.28890000     -71.72740000
C      -44.70740000     -31.71320000     -73.35220000
H      -45.42230000     -32.44830000     -73.84640000
H      -44.32910000     -30.97740000     -74.03950000
C      -45.89960000     -34.45700000     -71.86480000
H      -46.20550000     -33.64310000     -71.28510000
H      -46.15170000     -34.27670000     -72.93230000
C      -44.45580000     -34.73480000     -71.81760000
C      -43.83430000     -35.75450000     -71.15870000
C      -43.48140000     -33.88620000     -72.49150000
H      -44.26410000     -36.51890000     -70.57500000
C      -42.18050000     -34.30900000     -72.28830000
C      -43.47820000     -32.51250000     -73.09820000
C      -42.24240000     -32.12230000     -73.56350000
S      -42.06770000     -35.73550000     -71.30380000
S      -40.97270000     -33.34170000     -73.21450000
H      -42.07930000     -31.28410000     -74.11360000
