40
Properties=species:S:1:pos:R:3 #=T CELL(abcABC):=T 1.889726e+02=T 90.00000=T Traj:=T positionsangstrom=T Step:=T 0=T Bead:=T pbc="F F F"
C      -41.55920000     -32.70650000     -72.20020000
C      -42.44290000     -33.26050000     -73.11450000
C      -43.39440000     -32.46200000     -73.73440000
C      -43.50810000     -31.05570000     -73.33230000
C      -42.68870000     -30.55360000     -72.33170000
C      -41.63760000     -31.33620000     -71.83400000
H      -40.79740000     -33.23810000     -71.70800000
H      -44.16970000     -32.82080000     -74.38530000
H      -42.89840000     -29.57570000     -72.04510000
H      -41.02790000     -30.96520000     -71.01400000
C      -44.51490000     -30.26750000     -74.11940000
H      -44.32400000     -30.42500000     -75.13400000
H      -44.42810000     -29.22510000     -73.90730000
C      -42.37490000     -34.76190000     -73.27350000
H      -41.52360000     -34.97030000     -73.94860000
H      -42.15100000     -35.29630000     -72.34710000
S      -46.33240000     -30.77790000     -73.62080000
S      -43.88620000     -35.55680000     -73.87100000
C      -46.24910000     -31.34930000     -71.89100000
H      -45.28110000     -31.87250000     -71.76660000
H      -46.23960000     -30.46170000     -71.25940000
C      -45.11300000     -35.69170000     -72.49180000
H      -44.81010000     -36.61340000     -72.13890000
H      -46.08050000     -35.65830000     -72.99820000
C      -44.91600000     -34.63300000     -71.42450000
H      -43.83990000     -34.52390000     -71.26780000
H      -45.24240000     -33.66010000     -71.79260000
C      -47.39010000     -32.25410000     -71.45680000
H      -47.42310000     -33.14030000     -72.23010000
H      -48.29020000     -31.61250000     -71.61120000
C      -47.37250000     -32.81290000     -70.04690000
C      -48.31700000     -32.41800000     -69.08800000
C      -46.66010000     -34.00240000     -69.60580000
H      -49.08750000     -31.65170000     -69.15110000
C      -47.17530000     -34.54850000     -68.37510000
C      -45.62400000     -34.91610000     -70.15140000
C      -45.33250000     -35.94020000     -69.29900000
S      -48.49460000     -33.55980000     -67.71620000
S      -46.39730000     -36.10510000     -67.87710000
H      -44.74550000     -36.79630000     -69.53100000
