40
Properties=species:S:1:pos:R:3 #=T CELL(abcABC):=T 1.889726e+02=T 90.00000=T Traj:=T positionsangstrom=T Step:=T 0=T Bead:=T pbc="F F F"
C      -46.35890000     -31.43960000     -68.83180000
C      -47.44480000     -31.42800000     -69.73100000
C      -48.21840000     -32.64730000     -69.86280000
C      -47.90720000     -33.75460000     -69.10680000
C      -46.72640000     -33.72490000     -68.32910000
C      -45.97140000     -32.60460000     -68.17080000
H      -45.74250000     -30.54130000     -68.85890000
H      -49.10780000     -32.59670000     -70.38460000
H      -46.39150000     -34.61380000     -67.89680000
H      -45.14200000     -32.68550000     -67.49990000
C      -48.62470000     -34.98200000     -69.27580000
H      -49.73420000     -34.74220000     -69.19840000
H      -48.15880000     -35.79860000     -68.78390000
C      -47.65700000     -30.19090000     -70.55750000
H      -48.74620000     -29.96750000     -70.67870000
H      -47.16540000     -29.33700000     -70.08610000
S      -48.51760000     -35.50830000     -71.11740000
S      -47.02200000     -30.55290000     -72.28820000
C      -46.71950000     -35.75380000     -71.20020000
H      -46.39170000     -35.89590000     -70.19170000
H      -46.51960000     -36.68370000     -71.78390000
C      -45.25390000     -30.99940000     -72.07130000
H      -45.24310000     -31.68110000     -71.23480000
H      -44.74710000     -30.07430000     -71.84280000
C      -44.66730000     -31.62240000     -73.35360000
H      -45.46320000     -32.14960000     -73.77600000
H      -44.45300000     -30.78840000     -74.00680000
C      -45.97590000     -34.56380000     -71.79910000
H      -46.40230000     -33.56740000     -71.43000000
H      -46.15980000     -34.51260000     -72.92080000
C      -44.44650000     -34.73250000     -71.70780000
C      -43.86930000     -35.84130000     -71.19170000
C      -43.49260000     -33.76350000     -72.28260000
H      -44.24340000     -36.76450000     -70.76640000
C      -42.15810000     -34.22870000     -72.19370000
C      -43.46570000     -32.52600000     -73.08650000
C      -42.26250000     -32.24070000     -73.70000000
S      -42.06950000     -35.79620000     -71.48300000
S      -40.97910000     -33.32430000     -73.14610000
H      -41.90050000     -31.41190000     -74.29560000
