40
Properties=species:S:1:pos:R:3 #=T CELL(abcABC):=T 1.889726e+02=T 90.00000=T Traj:=T positionsangstrom=T Step:=T 0=T Bead:=T pbc="F F F"
C      -41.47600000     -33.15560000     -72.20770000
C      -42.44250000     -33.45750000     -73.27420000
C      -43.39240000     -32.44600000     -73.55920000
C      -43.34960000     -31.17660000     -72.99390000
C      -42.41470000     -30.97760000     -71.96820000
C      -41.46710000     -31.93490000     -71.58670000
H      -40.74260000     -33.83100000     -71.93880000
H      -44.19600000     -32.67010000     -74.19220000
H      -42.46390000     -30.11540000     -71.35310000
H      -40.80800000     -31.59180000     -70.76690000
C      -44.35110000     -30.07230000     -73.33660000
H      -44.29970000     -29.72830000     -74.34140000
H      -44.22020000     -29.22530000     -72.65580000
C      -42.44700000     -34.63130000     -74.17500000
H      -42.30430000     -34.58460000     -75.24710000
H      -41.58480000     -35.24470000     -73.78330000
S      -46.12300000     -30.58820000     -73.30590000
S      -43.98140000     -35.73550000     -74.15120000
C      -46.26360000     -31.26420000     -71.56580000
H      -45.36050000     -31.83500000     -71.31810000
H      -46.44720000     -30.42110000     -70.93320000
C      -44.29790000     -35.84130000     -72.25600000
H      -43.30400000     -35.64390000     -71.76530000
H      -44.68290000     -36.88150000     -72.18040000
C      -45.40570000     -34.87600000     -71.73510000
H      -44.97630000     -33.85120000     -71.89990000
H      -46.31660000     -34.89220000     -72.36430000
C      -47.49030000     -32.15700000     -71.59900000
H      -47.32850000     -32.85290000     -72.40300000
H      -48.31940000     -31.52440000     -71.61590000
C      -47.67520000     -32.92600000     -70.28490000
C      -48.51530000     -32.43950000     -69.32560000
C      -46.97130000     -34.08300000     -69.78400000
H      -49.09610000     -31.52640000     -69.48180000
C      -47.28000000     -34.33300000     -68.48740000
C      -45.89630000     -35.00120000     -70.35050000
C      -45.53340000     -35.89780000     -69.28450000
S      -48.50260000     -33.31450000     -67.85440000
S      -46.38890000     -35.70560000     -67.79440000
H      -44.79750000     -36.68120000     -69.28560000
