40
Properties=species:S:1:pos:R:3 #=T CELL(abcABC):=T 1.889726e+02=T 90.00000=T Traj:=T positionsangstrom=T Step:=T 0=T Bead:=T pbc="F F F"
C      -41.12630000     -31.72720000     -70.86450000
C      -42.38390000     -31.37720000     -71.43150000
C      -42.80450000     -32.06210000     -72.58200000
C      -42.02460000     -33.12710000     -73.07520000
C      -40.77760000     -33.38450000     -72.51890000
C      -40.27370000     -32.69970000     -71.43460000
H      -40.71280000     -31.15000000     -70.01750000
H      -43.72350000     -31.82490000     -73.07910000
H      -40.17650000     -34.17030000     -73.01060000
H      -39.29720000     -32.83220000     -71.04240000
C      -42.57240000     -33.85370000     -74.27020000
H      -41.82120000     -34.07870000     -75.08020000
H      -43.29940000     -33.21480000     -74.79860000
C      -43.16740000     -30.16310000     -70.86850000
H      -42.54480000     -29.29810000     -70.77650000
H      -44.04100000     -29.87770000     -71.45290000
S      -43.25270000     -35.45050000     -73.61650000
S      -43.71150000     -30.41190000     -69.21290000
C      -45.12580000     -35.18110000     -73.32600000
H      -45.36000000     -34.13820000     -73.59940000
H      -45.65290000     -35.85810000     -73.94990000
C      -45.44730000     -31.15760000     -69.29850000
H      -46.04430000     -30.27580000     -69.68710000
H      -45.67390000     -31.45030000     -68.32870000
C      -45.72800000     -32.38830000     -70.21770000
H      -45.44140000     -32.02130000     -71.20130000
H      -44.88010000     -33.16000000     -70.05400000
C      -45.52750000     -35.55730000     -71.87930000
H      -44.83730000     -35.14360000     -71.18860000
H      -45.43000000     -36.68280000     -71.80810000
C      -46.97520000     -35.32260000     -71.49430000
C      -47.91620000     -36.29700000     -71.83150000
C      -47.53730000     -34.19230000     -70.70360000
H      -47.78100000     -37.20900000     -72.43910000
C      -48.92550000     -34.42210000     -70.52610000
C      -47.17560000     -32.91170000     -70.22270000
C      -48.19320000     -32.10880000     -69.81390000
S      -49.58250000     -35.91320000     -71.25670000
S      -49.76800000     -33.08360000     -69.76060000
H      -48.17110000     -31.08690000     -69.30900000
