40
Properties=species:S:1:pos:R:3 #=T CELL(abcABC):=T 1.889726e+02=T 90.00000=T Traj:=T positionsangstrom=T Step:=T 0=T Bead:=T pbc="F F F"
C      -41.03210000     -32.33880000     -70.41830000
C      -42.02660000     -31.66850000     -71.11470000
C      -42.48840000     -32.23560000     -72.33010000
C      -41.95470000     -33.43750000     -72.85990000
C      -40.92840000     -34.08880000     -72.15750000
C      -40.53810000     -33.56800000     -70.91070000
H      -40.56660000     -31.81990000     -69.56530000
H      -43.39310000     -31.89540000     -72.87610000
H      -40.54450000     -35.04350000     -72.44810000
H      -39.85860000     -34.07100000     -70.24390000
C      -42.57320000     -33.95350000     -74.14060000
H      -41.82110000     -34.21280000     -74.85150000
H      -43.13710000     -33.14510000     -74.59870000
C      -42.72730000     -30.49300000     -70.51400000
H      -42.05230000     -29.64040000     -70.33100000
H      -43.50150000     -30.10400000     -71.22100000
S      -43.72580000     -35.39040000     -73.93030000
S      -43.59890000     -30.82210000     -68.90150000
C      -45.13740000     -34.64380000     -72.94410000
H      -44.93290000     -33.55960000     -72.93760000
H      -46.01920000     -34.89660000     -73.53220000
C      -45.41730000     -31.14830000     -69.29720000
H      -45.69830000     -30.32130000     -69.84340000
H      -45.83650000     -31.17190000     -68.33420000
C      -45.68100000     -32.48980000     -69.97720000
H      -45.26110000     -32.43270000     -70.91880000
H      -45.10570000     -33.32370000     -69.50210000
C      -45.51360000     -35.36050000     -71.58260000
H      -45.00250000     -34.95780000     -70.68140000
H      -45.22950000     -36.40440000     -71.73560000
C      -47.00280000     -35.20400000     -71.38090000
C      -47.91310000     -36.13340000     -71.94650000
C      -47.62860000     -34.04630000     -70.78760000
H      -47.76900000     -37.06930000     -72.39070000
C      -49.00760000     -34.06900000     -70.93150000
C      -47.14240000     -32.75820000     -70.24440000
C      -48.16490000     -31.87810000     -69.98230000
S      -49.59030000     -35.53430000     -71.61740000
S      -49.73590000     -32.47440000     -70.61600000
H      -48.05120000     -30.85250000     -69.87770000
