40
Properties=species:S:1:pos:R:3 #=T CELL(abcABC):=T 1.889726e+02=T 90.00000=T Traj:=T positionsangstrom=T Step:=T 0=T Bead:=T pbc="F F F"
C      -41.14060000     -31.11850000     -71.59170000
C      -42.49280000     -30.97760000     -71.94100000
C      -43.10330000     -31.92570000     -72.77600000
C      -42.38390000     -32.99190000     -73.32220000
C      -41.03520000     -33.14990000     -72.96810000
C      -40.45960000     -32.25420000     -72.01460000
H      -40.66390000     -30.37760000     -70.99140000
H      -44.12770000     -31.59790000     -73.04700000
H      -40.45520000     -33.98540000     -73.40350000
H      -39.42380000     -32.20150000     -71.82210000
C      -43.06290000     -33.93990000     -74.28570000
H      -42.42000000     -34.00460000     -75.15470000
H      -43.99090000     -33.40200000     -74.51550000
C      -43.39850000     -29.87180000     -71.34330000
H      -42.89870000     -28.85600000     -71.15560000
H      -44.26770000     -29.66820000     -72.02130000
S      -43.33830000     -35.60400000     -73.57850000
S      -43.89950000     -30.28060000     -69.56370000
C      -45.12980000     -35.43980000     -73.00580000
H      -45.62530000     -34.60290000     -73.46440000
H      -45.68560000     -36.37690000     -73.32850000
C      -45.57830000     -31.02370000     -69.71090000
H      -46.05290000     -30.37520000     -70.39180000
H      -46.18630000     -30.90280000     -68.78200000
C      -45.64800000     -32.49990000     -70.03630000
H      -45.12590000     -32.75780000     -70.96580000
H      -45.03340000     -32.97930000     -69.29040000
C      -45.19720000     -35.52190000     -71.41170000
H      -44.60000000     -34.72420000     -70.92540000
H      -44.87320000     -36.56100000     -71.16780000
C      -46.71870000     -35.35660000     -71.07090000
C      -47.52170000     -36.45360000     -71.33270000
C      -47.42260000     -34.29450000     -70.43770000
H      -47.35460000     -37.27420000     -72.08450000
C      -48.78630000     -34.58930000     -70.28640000
C      -47.03620000     -33.04140000     -69.88230000
C      -48.09460000     -32.33550000     -69.46470000
S      -49.18860000     -36.11680000     -71.09200000
S      -49.63030000     -33.33440000     -69.39820000
H      -48.02060000     -31.33650000     -68.89650000
