40
Properties=species:S:1:pos:R:3 #=T CELL(abcABC):=T 1.889726e+02=T 90.00000=T Traj:=T positionsangstrom=T Step:=T 0=T Bead:=T pbc="F F F"
C      -41.08490000     -32.13100000     -70.59100000
C      -42.21050000     -31.51970000     -71.28610000
C      -42.71970000     -32.22060000     -72.42200000
C      -42.00100000     -33.31710000     -72.92830000
C      -40.89420000     -33.85950000     -72.21200000
C      -40.44870000     -33.29320000     -71.03880000
H      -40.87220000     -31.78790000     -69.59880000
H      -43.52540000     -31.75450000     -73.04180000
H      -40.43950000     -34.71640000     -72.64850000
H      -39.64040000     -33.83170000     -70.45490000
C      -42.45160000     -34.09170000     -74.16870000
H      -41.63900000     -34.72340000     -74.52540000
H      -42.85740000     -33.52570000     -75.04240000
C      -43.04780000     -30.38880000     -70.73870000
H      -42.40200000     -29.52830000     -70.68280000
H      -43.88010000     -30.18850000     -71.37260000
S      -43.71100000     -35.41440000     -73.81790000
S      -43.55540000     -30.78760000     -68.98580000
C      -45.14100000     -34.56500000     -73.00680000
H      -44.78240000     -33.59080000     -72.73230000
H      -45.96630000     -34.43730000     -73.67030000
C      -45.32590000     -31.27030000     -69.23870000
H      -45.98740000     -30.45360000     -69.60150000
H      -45.67200000     -31.46090000     -68.16200000
C      -45.65030000     -32.42860000     -70.12650000
H      -45.06700000     -32.24120000     -71.10610000
H      -45.31050000     -33.32070000     -69.62640000
C      -45.50860000     -35.45880000     -71.74390000
H      -44.87410000     -35.13780000     -70.88680000
H      -45.38360000     -36.50620000     -71.96770000
C      -46.93400000     -35.24080000     -71.37940000
C      -47.91580000     -36.20470000     -71.69440000
C      -47.56300000     -34.02870000     -70.88900000
H      -47.75710000     -37.21590000     -71.93270000
C      -48.93020000     -34.07140000     -70.93820000
C      -47.13680000     -32.71650000     -70.36760000
C      -48.16940000     -31.93260000     -70.06970000
S      -49.53680000     -35.57550000     -71.56140000
S      -49.74140000     -32.71920000     -70.18040000
H      -48.05670000     -30.98730000     -69.64170000
