40
Properties=species:S:1:pos:R:3 #=T CELL(abcABC):=T 1.889726e+02=T 90.00000=T Traj:=T positionsangstrom=T Step:=T 0=T Bead:=T pbc="F F F"
C      -41.84590000     -33.27780000     -69.22980000
C      -42.21660000     -32.28060000     -70.11910000
C      -42.29700000     -32.60590000     -71.51880000
C      -42.04550000     -33.95920000     -71.88150000
C      -41.53830000     -34.86290000     -70.94730000
C      -41.42890000     -34.55630000     -69.59330000
H      -41.90250000     -33.14790000     -68.11440000
H      -42.67940000     -31.91580000     -72.27970000
H      -41.31300000     -35.85410000     -71.38100000
H      -41.16360000     -35.32960000     -68.81300000
C      -42.21750000     -34.32420000     -73.34010000
H      -41.30030000     -34.63570000     -73.85450000
H      -42.71880000     -33.41370000     -73.88210000
C      -42.53980000     -30.96060000     -69.61200000
H      -41.72330000     -30.39980000     -69.17310000
H      -43.00040000     -30.27850000     -70.36790000
S      -43.33690000     -35.81560000     -73.69790000
S      -43.93150000     -30.94020000     -68.37750000
C      -44.95100000     -35.11920000     -73.50540000
H      -44.95540000     -34.08250000     -73.87780000
H      -45.60830000     -35.76000000     -74.10880000
C      -45.44880000     -30.92680000     -69.45640000
H      -45.45750000     -29.96550000     -70.00830000
H      -46.33250000     -30.82610000     -68.72840000
C      -45.64200000     -32.13030000     -70.38680000
H      -44.99420000     -31.82980000     -71.27890000
H      -45.09140000     -32.98240000     -69.94640000
C      -45.50350000     -35.19980000     -72.11000000
H      -44.83380000     -34.69620000     -71.37400000
H      -45.40150000     -36.23410000     -71.90200000
C      -46.92350000     -34.74250000     -72.07370000
C      -47.83170000     -35.44980000     -72.84380000
C      -47.50240000     -33.55480000     -71.51110000
H      -47.62510000     -36.28910000     -73.38760000
C      -48.85890000     -33.44680000     -71.79080000
C      -47.06510000     -32.40640000     -70.74260000
C      -48.04100000     -31.47830000     -70.59400000
S      -49.42180000     -34.76150000     -72.74600000
S      -49.56980000     -31.94000000     -71.19810000
H      -47.96010000     -30.52490000     -70.02310000
