40
Properties=species:S:1:pos:R:3 #=T CELL(abcABC):=T 1.889726e+02=T 90.00000=T Traj:=T positionsangstrom=T Step:=T 0=T Bead:=T pbc="F F F"
C      -41.63780000     -33.35360000     -69.40540000
C      -42.19530000     -32.35020000     -70.22500000
C      -42.27550000     -32.59100000     -71.61290000
C      -41.94660000     -33.85480000     -72.15720000
C      -41.34920000     -34.83810000     -71.27380000
C      -41.26400000     -34.57750000     -69.90990000
H      -41.65370000     -33.17210000     -68.34150000
H      -42.62190000     -31.84810000     -72.27880000
H      -40.88640000     -35.78500000     -71.55670000
H      -40.68080000     -35.28020000     -69.34900000
C      -42.28920000     -34.16950000     -73.53630000
H      -41.27680000     -34.37470000     -74.07260000
H      -42.57710000     -33.22580000     -74.12690000
C      -42.45600000     -30.98360000     -69.71560000
H      -41.58750000     -30.47370000     -69.24920000
H      -42.74080000     -30.34550000     -70.55260000
S      -43.41530000     -35.56070000     -73.93250000
S      -43.83210000     -31.00460000     -68.45090000
C      -44.98450000     -34.91270000     -73.49840000
H      -45.04270000     -33.82550000     -73.67660000
H      -45.68260000     -35.35770000     -74.24400000
C      -45.43780000     -30.94880000     -69.35680000
H      -45.54700000     -29.93460000     -69.80850000
H      -46.17220000     -31.08600000     -68.60550000
C      -45.60420000     -32.10210000     -70.39150000
H      -44.95170000     -31.86330000     -71.31200000
H      -45.20060000     -33.01680000     -69.90300000
C      -45.53680000     -35.19520000     -72.04270000
H      -45.01720000     -34.64560000     -71.32660000
H      -45.33880000     -36.27200000     -71.89650000
C      -46.98700000     -34.85250000     -71.89680000
C      -48.01570000     -35.65420000     -72.38590000
C      -47.55950000     -33.61520000     -71.37490000
H      -47.98010000     -36.75220000     -72.70760000
C      -48.93140000     -33.47850000     -71.63480000
C      -47.02600000     -32.35260000     -70.82810000
C      -47.99520000     -31.39570000     -70.60720000
S      -49.58800000     -35.01810000     -72.15470000
S      -49.61240000     -31.91240000     -71.23100000
H      -47.96530000     -30.35740000     -70.34260000
