40
Properties=species:S:1:pos:R:3 #=T CELL(abcABC):=T 1.889726e+02=T 90.00000=T Traj:=T positionsangstrom=T Step:=T 0=T Bead:=T pbc="F F F"
C      -42.34690000     -33.43630000     -68.83080000
C      -42.49710000     -32.50430000     -69.90630000
C      -42.19460000     -32.95420000     -71.25110000
C      -41.95380000     -34.31560000     -71.54310000
C      -41.78200000     -35.18540000     -70.41040000
C      -41.98880000     -34.74390000     -69.12870000
H      -42.51230000     -33.18540000     -67.80330000
H      -42.41910000     -32.31570000     -72.10000000
H      -41.64720000     -36.25370000     -70.64280000
H      -41.89010000     -35.31910000     -68.22660000
C      -41.72220000     -34.60440000     -73.11370000
H      -40.68500000     -35.06890000     -73.15400000
H      -41.64410000     -33.73280000     -73.65450000
C      -42.85130000     -31.02130000     -69.72050000
H      -41.92780000     -30.56070000     -69.38800000
H      -43.18160000     -30.42350000     -70.55630000
S      -42.86210000     -35.86640000     -73.77600000
S      -44.10120000     -30.76100000     -68.33210000
C      -44.50030000     -34.81170000     -73.71760000
H      -44.20540000     -33.74730000     -73.75140000
H      -45.05360000     -35.06400000     -74.64850000
C      -45.75290000     -30.99850000     -69.13850000
H      -46.05560000     -30.13590000     -69.78900000
H      -46.36860000     -31.13480000     -68.26350000
C      -45.79770000     -32.23020000     -70.02820000
H      -45.02820000     -32.10960000     -70.76970000
H      -45.49940000     -33.12310000     -69.45820000
C      -45.33090000     -34.99820000     -72.46250000
H      -44.86380000     -34.62720000     -71.50710000
H      -45.48240000     -36.05130000     -72.29150000
C      -46.75470000     -34.36980000     -72.51290000
C      -47.55920000     -34.78120000     -73.52840000
C      -47.47210000     -33.45960000     -71.63300000
H      -47.32770000     -35.46640000     -74.33270000
C      -48.87030000     -33.42750000     -72.02290000
C      -47.15290000     -32.52300000     -70.57000000
C      -48.24710000     -31.73130000     -70.25540000
S      -49.21330000     -34.21260000     -73.48630000
S      -49.75580000     -32.27810000     -71.06400000
H      -48.24290000     -30.93670000     -69.50560000
