40
Properties=species:S:1:pos:R:3 #=T CELL(abcABC):=T 1.889726e+02=T 90.00000=T Traj:=T positionsangstrom=T Step:=T 0=T Bead:=T pbc="F F F"
C      -46.69600000     -35.40900000     -74.30530000
C      -45.51000000     -35.76480000     -73.63230000
C      -44.28290000     -35.03520000     -73.90920000
C      -44.39370000     -33.82470000     -74.63710000
C      -45.64460000     -33.26440000     -75.04200000
C      -46.78160000     -34.10370000     -74.89510000
H      -47.59700000     -35.97930000     -74.25650000
H      -43.28610000     -35.49100000     -73.58580000
H      -45.76410000     -32.33150000     -75.61450000
H      -47.75770000     -33.75190000     -75.33160000
C      -43.11680000     -33.00480000     -74.85120000
H      -43.35030000     -32.14090000     -75.47600000
H      -42.47960000     -33.63560000     -75.43500000
C      -45.60240000     -36.95750000     -72.69920000
H      -46.67880000     -37.24370000     -72.44770000
H      -45.13130000     -37.92710000     -73.08560000
S      -42.19960000     -32.46050000     -73.31860000
S      -44.71900000     -36.87950000     -71.04470000
C      -43.43970000     -31.55890000     -72.31530000
H      -42.93720000     -30.73850000     -72.04350000
H      -44.36380000     -31.38550000     -72.88680000
C      -45.86470000     -35.90560000     -70.03840000
H      -46.54050000     -36.54140000     -69.37670000
H      -46.53920000     -35.24040000     -70.65730000
C      -45.04100000     -34.89870000     -69.10530000
H      -44.80790000     -35.37160000     -68.10380000
H      -44.07420000     -34.71740000     -69.54030000
C      -43.94160000     -32.37300000     -71.09120000
H      -43.10420000     -32.80070000     -70.47520000
H      -44.42780000     -33.23660000     -71.56310000
C      -44.87060000     -31.64060000     -70.18040000
C      -45.21310000     -30.37050000     -70.39560000
C      -45.72190000     -32.33220000     -69.26150000
H      -44.79190000     -29.63100000     -71.17410000
C      -46.66840000     -31.39530000     -68.70770000
C      -45.83490000     -33.69460000     -68.81240000
C      -46.95640000     -33.76050000     -68.01550000
S      -46.60950000     -29.83200000     -69.41210000
S      -47.82270000     -32.32150000     -67.75400000
H      -47.39830000     -34.67230000     -67.52480000
