40
Properties=species:S:1:pos:R:3 #=T CELL(abcABC):=T 1.889726e+02=T 90.00000=T Traj:=T positionsangstrom=T Step:=T 0=T Bead:=T pbc="F F F"
C      -42.75760000     -33.71020000     -68.95510000
C      -42.54720000     -32.62050000     -69.77510000
C      -42.05050000     -32.92570000     -71.07630000
C      -41.81410000     -34.21970000     -71.50110000
C      -41.85130000     -35.25780000     -70.55290000
C      -42.37860000     -34.96040000     -69.31880000
H      -43.34330000     -33.56060000     -68.05070000
H      -41.98890000     -32.07330000     -71.74260000
H      -41.48110000     -36.25080000     -70.87410000
H      -42.46930000     -35.77940000     -68.59490000
C      -41.53960000     -34.44040000     -72.98240000
H      -40.45080000     -34.66810000     -73.24630000
H      -41.72360000     -33.50060000     -73.46200000
C      -42.80870000     -31.13830000     -69.36000000
H      -41.99820000     -30.60710000     -68.78190000
H      -42.82090000     -30.53870000     -70.24900000
S      -42.73920000     -35.71020000     -73.70610000
S      -44.26210000     -30.74710000     -68.25500000
C      -44.44260000     -34.94160000     -73.87690000
H      -44.31240000     -34.09960000     -74.51720000
H      -44.97810000     -35.75960000     -74.21970000
C      -45.67320000     -31.03710000     -69.42650000
H      -45.37610000     -30.52570000     -70.35250000
H      -46.54000000     -30.45630000     -69.03040000
C      -46.04990000     -32.41830000     -69.65640000
H      -45.31410000     -33.07780000     -70.08200000
H      -46.21360000     -32.91220000     -68.67810000
C      -44.96770000     -34.40390000     -72.51180000
H      -44.38720000     -33.46910000     -72.39790000
H      -44.72380000     -35.05400000     -71.73860000
C      -46.58890000     -34.07810000     -72.61410000
C      -47.32460000     -34.70850000     -73.55990000
C      -47.46200000     -33.22060000     -71.82720000
H      -46.85660000     -35.32840000     -74.34800000
C      -48.77540000     -33.19910000     -72.26400000
C      -47.31410000     -32.49400000     -70.55190000
C      -48.48540000     -32.05540000     -70.02920000
S      -49.00610000     -34.23140000     -73.66070000
S      -49.91460000     -32.53120000     -71.02300000
H      -48.70760000     -31.53470000     -69.12350000
