40
Properties=species:S:1:pos:R:3 #=T CELL(abcABC):=T 1.889726e+02=T 90.00000=T Traj:=T positionsangstrom=T Step:=T 0=T Bead:=T pbc="F F F"
C      -41.70890000     -32.24300000     -74.19790000
C      -43.03810000     -31.96630000     -73.92140000
C      -43.34590000     -31.43850000     -72.62710000
C      -42.31570000     -31.22330000     -71.66340000
C      -40.97740000     -31.44890000     -72.01720000
C      -40.68880000     -31.91140000     -73.31650000
H      -41.49490000     -32.70240000     -75.15750000
H      -44.40390000     -31.11650000     -72.48210000
H      -40.14370000     -31.27620000     -71.32930000
H      -39.64200000     -32.04500000     -73.56170000
C      -42.70930000     -30.57710000     -70.32280000
H      -43.49660000     -29.87890000     -70.43330000
H      -41.84830000     -29.95540000     -69.96880000
C      -44.18740000     -32.32530000     -74.86840000
H      -44.79600000     -31.43620000     -75.01290000
H      -43.75230000     -32.78960000     -75.73580000
S      -43.06880000     -31.84870000     -69.00200000
S      -45.45450000     -33.50730000     -74.27220000
C      -44.87750000     -32.42140000     -69.24960000
H      -45.44600000     -31.58000000     -68.83890000
H      -45.12210000     -32.52100000     -70.33830000
C      -44.73000000     -34.98570000     -73.39710000
H      -43.61570000     -34.85800000     -73.51630000
H      -45.12190000     -35.88690000     -73.85060000
C      -45.12690000     -34.97130000     -71.88520000
H      -44.89260000     -35.97540000     -71.48240000
H      -44.42920000     -34.27430000     -71.41980000
C      -45.17460000     -33.80290000     -68.63360000
H      -45.03190000     -33.78070000     -67.49820000
H      -44.48760000     -34.64480000     -69.04050000
C      -46.58370000     -34.12520000     -68.94350000
C      -47.49660000     -34.32450000     -67.95420000
C      -47.08560000     -34.46450000     -70.28480000
H      -47.39900000     -34.22830000     -66.89700000
C      -48.43480000     -34.67760000     -70.17760000
C      -46.56380000     -34.82090000     -71.57300000
C      -47.57860000     -35.14410000     -72.43760000
S      -49.10410000     -34.66050000     -68.53130000
S      -49.15990000     -35.20390000     -71.65170000
H      -47.34330000     -35.67510000     -73.40140000
