40
Properties=species:S:1:pos:R:3 #=T CELL(abcABC):=T 1.889726e+02=T 90.00000=T Traj:=T positionsangstrom=T Step:=T 0=T Bead:=T pbc="F F F"
C      -42.86940000     -33.66410000     -68.59200000
C      -42.66150000     -32.54290000     -69.43430000
C      -42.41240000     -32.75130000     -70.81660000
C      -42.21950000     -34.03950000     -71.31080000
C      -42.37310000     -35.14700000     -70.45150000
C      -42.70480000     -34.93910000     -69.10290000
H      -42.88700000     -33.52490000     -67.50560000
H      -42.24750000     -31.83900000     -71.38060000
H      -42.29950000     -36.11360000     -70.89080000
H      -42.77380000     -35.80590000     -68.41180000
C      -41.79670000     -34.20830000     -72.77740000
H      -40.70470000     -34.50350000     -72.90440000
H      -42.06540000     -33.30560000     -73.36620000
C      -42.81500000     -31.19230000     -68.81190000
H      -42.21420000     -31.18160000     -67.83050000
H      -42.32230000     -30.47590000     -69.44210000
S      -42.63990000     -35.64850000     -73.54120000
S      -44.48270000     -30.79230000     -68.25040000
C      -44.35230000     -35.07680000     -73.98500000
H      -44.20310000     -34.55520000     -74.92520000
H      -44.87780000     -35.90590000     -74.27880000
C      -45.54340000     -31.17960000     -69.72170000
H      -45.07070000     -30.67040000     -70.54990000
H      -46.47440000     -30.69380000     -69.48820000
C      -45.76470000     -32.69950000     -69.87390000
H      -44.99640000     -33.08710000     -70.43620000
H      -45.69410000     -33.17400000     -68.87940000
C      -45.06040000     -34.29170000     -72.83560000
H      -44.49030000     -33.35330000     -72.63590000
H      -44.92340000     -34.83720000     -71.87790000
C      -46.45820000     -34.01580000     -72.98990000
C      -47.17560000     -34.30250000     -74.11350000
C      -47.31750000     -33.48720000     -71.89600000
H      -46.70960000     -34.59720000     -75.03660000
C      -48.69260000     -33.44100000     -72.26190000
C      -47.07080000     -32.90470000     -70.59600000
C      -48.24750000     -32.46940000     -69.95630000
S      -48.89460000     -33.88400000     -74.00770000
S      -49.65150000     -32.68170000     -70.98430000
H      -48.40300000     -32.12220000     -68.95700000
