40
Properties=species:S:1:pos:R:3 #=T CELL(abcABC):=T 1.889726e+02=T 90.00000=T Traj:=T positionsangstrom=T Step:=T 0=T Bead:=T pbc="F F F"
C      -44.36910000     -36.98580000     -71.87070000
C      -45.75340000     -36.89400000     -71.65720000
C      -46.31330000     -36.41680000     -70.48860000
C      -45.50530000     -35.97040000     -69.50240000
C      -44.07760000     -36.07350000     -69.66980000
C      -43.54960000     -36.62500000     -70.78680000
H      -43.94690000     -37.38410000     -72.84760000
H      -47.42840000     -36.21720000     -70.33830000
H      -43.39850000     -35.60810000     -69.00770000
H      -42.40650000     -36.86350000     -70.77870000
C      -46.07910000     -35.32220000     -68.26970000
H      -46.36910000     -36.09330000     -67.48040000
H      -47.04470000     -34.80900000     -68.65420000
C      -46.69610000     -37.06120000     -72.83530000
H      -46.35130000     -37.81630000     -73.64470000
H      -47.77420000     -37.36460000     -72.68630000
S      -44.90290000     -34.21990000     -67.45940000
S      -46.73730000     -35.47620000     -73.85960000
C      -44.92390000     -32.68300000     -68.54070000
H      -45.86980000     -32.41640000     -68.91460000
H      -44.65360000     -31.87170000     -67.84080000
C      -47.58820000     -34.29740000     -72.66540000
H      -48.13280000     -34.95400000     -72.00650000
H      -48.31650000     -33.83400000     -73.29670000
C      -46.60890000     -33.47550000     -71.87820000
H      -47.03210000     -33.32260000     -70.84240000
H      -45.81980000     -34.12520000     -71.57110000
C      -43.99970000     -32.69120000     -69.74920000
H      -44.03690000     -33.59480000     -70.35960000
H      -42.98280000     -32.69830000     -69.29450000
C      -44.21470000     -31.47230000     -70.62580000
C      -43.35650000     -30.36410000     -70.50940000
C      -45.12010000     -31.32090000     -71.73010000
H      -42.64080000     -30.17480000     -69.63890000
C      -44.86510000     -30.14600000     -72.47680000
C      -46.09610000     -32.15620000     -72.45720000
C      -46.51190000     -31.58150000     -73.62240000
S      -43.68230000     -29.07630000     -71.70500000
S      -45.68730000     -30.11760000     -73.99560000
H      -47.09820000     -32.12270000     -74.36880000
