40
Properties=species:S:1:pos:R:3 #=T CELL(abcABC):=T 1.889726e+02=T 90.00000=T Traj:=T positionsangstrom=T Step:=T 0=T Bead:=T pbc="F F F"
C      -42.77020000     -33.57560000     -68.53820000
C      -42.74450000     -32.44870000     -69.39100000
C      -42.12630000     -32.69160000     -70.62560000
C      -41.62860000     -33.89560000     -70.98500000
C      -41.62280000     -34.94140000     -70.11220000
C      -42.23090000     -34.81510000     -68.90080000
H      -43.16000000     -33.50880000     -67.56310000
H      -42.03840000     -31.88920000     -71.38050000
H      -41.26700000     -35.83340000     -70.46420000
H      -42.26580000     -35.67950000     -68.15630000
C      -41.08820000     -34.20440000     -72.39000000
H      -40.54970000     -35.16270000     -72.36240000
H      -40.39210000     -33.44670000     -72.81080000
C      -43.17930000     -31.12220000     -68.91100000
H      -42.59040000     -30.90720000     -68.02710000
H      -42.91280000     -30.37520000     -69.70080000
S      -42.38420000     -34.33970000     -73.78070000
S      -44.92930000     -31.11750000     -68.25530000
C      -43.98260000     -33.58720000     -73.34510000
H      -43.87690000     -32.51960000     -72.94800000
H      -44.52890000     -33.43380000     -74.36750000
C      -46.17080000     -31.69830000     -69.49480000
H      -45.85130000     -31.48610000     -70.50610000
H      -47.05330000     -31.12840000     -69.24830000
C      -46.59230000     -33.17670000     -69.49470000
H      -45.79560000     -33.81950000     -69.61050000
H      -47.08570000     -33.39540000     -68.55800000
C      -44.91110000     -34.39500000     -72.38240000
H      -44.78080000     -34.06690000     -71.29660000
H      -44.63950000     -35.44510000     -72.47740000
C      -46.35120000     -34.17430000     -72.76920000
C      -46.74340000     -34.29350000     -74.09850000
C      -47.45600000     -33.82950000     -71.90820000
H      -46.02020000     -34.34130000     -74.95860000
C      -48.67270000     -33.72010000     -72.60740000
C      -47.66410000     -33.48530000     -70.50410000
C      -48.95530000     -33.13570000     -70.24010000
S      -48.51740000     -34.01910000     -74.34490000
S      -50.05500000     -33.23280000     -71.62270000
H      -49.32260000     -32.79390000     -69.25650000
