40
Properties=species:S:1:pos:R:3 #=T CELL(abcABC):=T 1.889726e+02=T 90.00000=T Traj:=T positionsangstrom=T Step:=T 0=T Bead:=T pbc="F F F"
C      -44.44860000     -37.25970000     -71.88540000
C      -45.83140000     -37.04150000     -71.68630000
C      -46.37400000     -36.42520000     -70.52380000
C      -45.43440000     -36.02990000     -69.50010000
C      -44.07560000     -36.29370000     -69.73400000
C      -43.54240000     -36.90520000     -70.83360000
H      -44.07110000     -37.57270000     -72.87350000
H      -47.48520000     -36.22660000     -70.38250000
H      -43.30870000     -36.05260000     -68.98670000
H      -42.44270000     -36.98500000     -70.68450000
C      -46.00360000     -35.37860000     -68.26410000
H      -46.12040000     -36.12260000     -67.46710000
H      -46.86510000     -34.89030000     -68.45450000
C      -46.69960000     -37.30680000     -72.83850000
H      -46.31770000     -38.10950000     -73.40710000
H      -47.62330000     -37.41890000     -72.37040000
S      -44.93660000     -33.98520000     -67.47920000
S      -46.77260000     -35.70360000     -73.94490000
C      -45.11680000     -32.54400000     -68.51560000
H      -46.16680000     -32.55180000     -68.88220000
H      -44.95020000     -31.61630000     -67.90190000
C      -47.38300000     -34.34340000     -72.75940000
H      -48.09200000     -34.81850000     -72.05740000
H      -47.96720000     -33.67650000     -73.42850000
C      -46.36740000     -33.47940000     -71.96250000
H      -46.78380000     -33.27720000     -70.97170000
H      -45.45870000     -34.13570000     -71.85510000
C      -44.10310000     -32.55420000     -69.61590000
H      -44.27920000     -33.41010000     -70.26020000
H      -43.09990000     -32.54790000     -69.15860000
C      -44.19630000     -31.38210000     -70.57940000
C      -43.35270000     -30.25830000     -70.48710000
C      -45.02690000     -31.24890000     -71.73640000
H      -42.52290000     -30.08740000     -69.74370000
C      -44.87790000     -30.06400000     -72.44980000
C      -45.99530000     -32.11830000     -72.48360000
C      -46.50600000     -31.53190000     -73.59970000
S      -43.53940000     -29.09460000     -71.76700000
S      -45.88570000     -29.86700000     -73.79660000
H      -47.28160000     -31.90650000     -74.27960000
