40
Properties=species:S:1:pos:R:3 #=T CELL(abcABC):=T 1.889726e+02=T 90.00000=T Traj:=T positionsangstrom=T Step:=T 0=T Bead:=T pbc="F F F"
C      -43.20930000     -34.20230000     -68.90860000
C      -44.23890000     -33.40350000     -68.30180000
C      -45.51900000     -33.98160000     -68.10270000
C      -45.85880000     -35.21480000     -68.60730000
C      -44.87520000     -35.98550000     -69.29270000
C      -43.53310000     -35.54040000     -69.37850000
H      -42.24160000     -33.73680000     -69.12840000
H      -46.23560000     -33.49580000     -67.47070000
H      -45.04600000     -36.89480000     -69.88620000
H      -42.74560000     -36.07430000     -69.81740000
C      -47.25640000     -35.84170000     -68.61950000
H      -47.78140000     -35.64130000     -67.66970000
H      -47.08500000     -36.90710000     -68.83200000
C      -44.09720000     -31.88880000     -67.96410000
H      -44.96580000     -31.27530000     -67.78530000
H      -43.53770000     -31.75410000     -67.07130000
S      -48.38500000     -34.80920000     -69.65080000
S      -43.20360000     -30.91100000     -69.30000000
C      -47.62390000     -34.83920000     -71.41140000
H      -46.54980000     -35.02750000     -71.30240000
H      -48.15470000     -35.67790000     -71.92630000
C      -44.66390000     -30.55330000     -70.40500000
H      -44.20970000     -29.91580000     -71.16910000
H      -45.43420000     -29.91020000     -69.95210000
C      -45.33650000     -31.76580000     -70.96790000
H      -45.31910000     -32.43560000     -70.13970000
H      -46.29220000     -31.44350000     -71.24440000
C      -48.03860000     -33.51060000     -72.23280000
H      -48.22410000     -32.60980000     -71.61760000
H      -49.02980000     -33.68380000     -72.68480000
C      -46.95750000     -33.38990000     -73.33900000
C      -47.22250000     -33.73630000     -74.70590000
C      -45.51060000     -32.95850000     -73.23990000
H      -48.20840000     -34.04050000     -75.11340000
C      -44.78730000     -33.18720000     -74.40080000
C      -44.67780000     -32.31810000     -72.22450000
C      -43.38160000     -32.16800000     -72.63950000
S      -45.82940000     -33.74280000     -75.75970000
S      -43.08450000     -32.66430000     -74.30070000
H      -42.56350000     -31.78710000     -72.14050000
