40
Properties=species:S:1:pos:R:3 #=T CELL(abcABC):=T 1.889726e+02=T 90.00000=T Traj:=T positionsangstrom=T Step:=T 0=T Bead:=T pbc="F F F"
C      -42.83810000     -35.05870000     -75.19230000
C      -43.90230000     -35.23690000     -74.27420000
C      -43.70800000     -35.21270000     -72.88650000
C      -42.46750000     -35.00920000     -72.43540000
C      -41.36210000     -34.80780000     -73.29690000
C      -41.50980000     -34.85590000     -74.66300000
H      -43.05790000     -35.10700000     -76.23920000
H      -44.55450000     -35.27050000     -72.24700000
H      -40.39100000     -34.69740000     -72.83610000
H      -40.69040000     -34.71270000     -75.42880000
C      -42.21640000     -34.90630000     -70.98760000
H      -41.21740000     -34.46640000     -70.91730000
H      -42.24750000     -35.93560000     -70.45270000
C      -45.30820000     -35.25950000     -74.77780000
H      -45.41450000     -35.82590000     -75.69530000
H      -45.92030000     -35.83590000     -74.09260000
S      -43.39470000     -33.86500000     -70.05950000
S      -46.18920000     -33.67900000     -75.00220000
C      -44.43750000     -35.07130000     -69.28470000
H      -44.24870000     -36.10120000     -69.52210000
H      -44.25660000     -35.06210000     -68.21330000
C      -45.82960000     -32.77380000     -73.43880000
H      -45.50020000     -31.71410000     -73.68300000
H      -44.86730000     -33.10940000     -73.07490000
C      -46.90100000     -33.03730000     -72.38680000
H      -47.84020000     -32.99560000     -72.93600000
H      -46.93950000     -34.04610000     -72.04530000
C      -45.97630000     -34.95880000     -69.56790000
H      -46.45480000     -35.81680000     -69.08720000
H      -46.29980000     -35.09600000     -70.57900000
C      -46.60700000     -33.68640000     -68.99600000
C      -46.89450000     -33.59600000     -67.67580000
C      -46.93910000     -32.46950000     -69.71500000
H      -46.85690000     -34.38460000     -66.98660000
C      -47.19740000     -31.40790000     -68.85080000
C      -46.91650000     -32.07260000     -71.13120000
C      -47.05040000     -30.74370000     -71.27370000
S      -47.38770000     -31.99540000     -67.18780000
S      -47.42140000     -29.89170000     -69.74860000
H      -47.08110000     -30.23510000     -72.26680000
