40
Properties=species:S:1:pos:R:3 #=T CELL(abcABC):=T 1.889726e+02=T 90.00000=T Traj:=T positionsangstrom=T Step:=T 0=T Bead:=T pbc="F F F"
C      -43.12840000     -34.93700000     -75.20810000
C      -44.12330000     -35.16500000     -74.27100000
C      -43.86820000     -35.28520000     -72.91720000
C      -42.55640000     -34.92930000     -72.47510000
C      -41.55430000     -34.69150000     -73.39970000
C      -41.80140000     -34.67530000     -74.76840000
H      -43.54570000     -34.82120000     -76.19400000
H      -44.72110000     -35.46900000     -72.23580000
H      -40.57320000     -34.39960000     -73.06340000
H      -41.02120000     -34.21340000     -75.51150000
C      -42.24810000     -34.87150000     -71.03960000
H      -41.23450000     -34.50190000     -70.89450000
H      -42.18430000     -35.82620000     -70.57390000
C      -45.55300000     -35.25370000     -74.69710000
H      -45.68650000     -35.84330000     -75.60770000
H      -46.19070000     -35.67180000     -73.89680000
S      -43.55910000     -33.94990000     -70.07470000
S      -45.99020000     -33.44530000     -75.12630000
C      -44.44050000     -35.29460000     -69.13490000
H      -44.10290000     -36.19660000     -69.58000000
H      -44.14130000     -35.28070000     -68.04310000
C      -45.59440000     -32.55490000     -73.50680000
H      -45.77970000     -31.49430000     -73.68520000
H      -44.55130000     -32.80240000     -73.38780000
C      -46.50330000     -33.02460000     -72.34230000
H      -47.56430000     -33.14890000     -72.71830000
H      -46.12480000     -34.01960000     -72.12020000
C      -45.93610000     -35.10120000     -69.39200000
H      -46.37510000     -35.86350000     -68.77120000
H      -46.06200000     -35.19980000     -70.50790000
C      -46.52170000     -33.80120000     -68.96350000
C      -46.92890000     -33.65840000     -67.69180000
C      -46.69390000     -32.58780000     -69.72890000
H      -46.70860000     -34.36080000     -66.94590000
C      -47.12130000     -31.54770000     -68.91050000
C      -46.67560000     -32.12950000     -71.11090000
C      -46.92150000     -30.75300000     -71.18260000
S      -47.36150000     -32.03020000     -67.22530000
S      -47.45780000     -30.00560000     -69.62200000
H      -46.75120000     -30.14220000     -72.09420000
