40
Properties=species:S:1:pos:R:3 #=T CELL(abcABC):=T 1.889726e+02=T 90.00000=T Traj:=T positionsangstrom=T Step:=T 0=T Bead:=T pbc="F F F"
C      -42.71520000     -35.11360000     -75.14440000
C      -43.81330000     -35.19500000     -74.18830000
C      -43.53050000     -35.13830000     -72.82410000
C      -42.25520000     -34.97330000     -72.41640000
C      -41.18190000     -34.95310000     -73.30880000
C      -41.39700000     -34.96100000     -74.71090000
H      -42.92830000     -35.13460000     -76.20410000
H      -44.33520000     -35.27810000     -72.07280000
H      -40.20940000     -34.70840000     -72.84610000
H      -40.63570000     -34.76710000     -75.47480000
C      -42.08600000     -34.90530000     -70.92310000
H      -41.15380000     -34.47140000     -70.65270000
H      -42.01310000     -35.87310000     -70.51840000
C      -45.18520000     -35.37860000     -74.75700000
H      -45.08360000     -35.68180000     -75.83410000
H      -45.67500000     -36.18340000     -74.14090000
S      -43.36890000     -33.88660000     -69.96650000
S      -46.24010000     -33.85010000     -74.84200000
C      -44.62660000     -35.07770000     -69.22450000
H      -44.19280000     -36.15180000     -69.44060000
H      -44.57450000     -34.80220000     -68.17110000
C      -46.03290000     -32.85750000     -73.29890000
H      -46.05310000     -31.82480000     -73.61140000
H      -45.15730000     -33.15820000     -72.73370000
C      -47.29630000     -33.00420000     -72.43530000
H      -48.19480000     -32.77020000     -73.08880000
H      -47.27080000     -34.05410000     -72.12800000
C      -46.10890000     -34.88880000     -69.68950000
H      -46.60770000     -35.83890000     -69.32550000
H      -46.08230000     -35.03210000     -70.77720000
C      -46.59890000     -33.63520000     -69.07130000
C      -46.78010000     -33.48430000     -67.75130000
C      -46.93700000     -32.44610000     -69.82910000
H      -46.71350000     -34.28080000     -67.03460000
C      -47.06000000     -31.35110000     -68.95290000
C      -47.20230000     -32.04210000     -71.21480000
C      -47.36800000     -30.72580000     -71.32940000
S      -47.29720000     -31.84110000     -67.30330000
S      -47.42380000     -29.87070000     -69.79810000
H      -47.60860000     -30.24070000     -72.24880000
