40
Properties=species:S:1:pos:R:3 #=T CELL(abcABC):=T 1.889726e+02=T 90.00000=T Traj:=T positionsangstrom=T Step:=T 0=T Bead:=T pbc="F F F"
C      -41.85090000     -32.29110000     -74.10790000
C      -43.16450000     -32.00480000     -73.73090000
C      -43.44530000     -31.47420000     -72.46190000
C      -42.41520000     -31.23180000     -71.53930000
C      -41.05500000     -31.55680000     -71.96070000
C      -40.79970000     -32.01940000     -73.23190000
H      -41.70700000     -32.66960000     -75.08350000
H      -44.44660000     -31.21180000     -72.10950000
H      -40.25890000     -31.30470000     -71.30530000
H      -39.70540000     -32.09000000     -73.55630000
C      -42.62320000     -30.54670000     -70.21860000
H      -43.42780000     -29.77160000     -70.25250000
H      -41.68100000     -30.10820000     -69.92750000
C      -44.22470000     -32.20320000     -74.78270000
H      -44.71700000     -31.23030000     -75.04820000
H      -43.81140000     -32.53180000     -75.75960000
S      -42.94590000     -31.80330000     -68.87440000
S      -45.58780000     -33.47790000     -74.40880000
C      -44.69700000     -32.26230000     -69.42520000
H      -45.43830000     -31.51830000     -68.99670000
H      -44.76480000     -32.25670000     -70.44090000
C      -44.77420000     -34.74870000     -73.38530000
H      -43.72070000     -34.56280000     -73.63560000
H      -44.87360000     -35.80060000     -73.73600000
C      -45.14250000     -34.65310000     -71.93750000
H      -44.57380000     -35.38700000     -71.34820000
H      -44.94030000     -33.67950000     -71.52220000
C      -45.11210000     -33.63070000     -68.84240000
H      -44.94840000     -33.66730000     -67.77200000
H      -44.48610000     -34.36680000     -69.27530000
C      -46.56540000     -33.99810000     -69.11480000
C      -47.41110000     -34.04810000     -68.03520000
C      -47.12150000     -34.65680000     -70.30650000
H      -47.28460000     -33.63200000     -67.04080000
C      -48.42680000     -35.06150000     -70.14770000
C      -46.59690000     -34.87090000     -71.66380000
C      -47.63230000     -35.21750000     -72.51110000
S      -48.96020000     -34.78900000     -68.51040000
S      -49.13140000     -35.40550000     -71.67420000
H      -47.65700000     -35.44330000     -73.62330000
