40
Properties=species:S:1:pos:R:3 #=T CELL(abcABC):=T 1.889726e+02=T 90.00000=T Traj:=T positionsangstrom=T Step:=T 0=T Bead:=T pbc="F F F"
C      -42.36820000     -36.36090000     -73.14840000
C      -43.35060000     -35.45540000     -73.60040000
C      -43.13600000     -34.08550000     -73.28720000
C      -42.18360000     -33.65860000     -72.35040000
C      -41.26580000     -34.55700000     -71.80780000
C      -41.41410000     -35.89160000     -72.24420000
H      -42.35050000     -37.39910000     -73.33570000
H      -43.94420000     -33.39830000     -73.62140000
H      -40.68100000     -34.21190000     -70.96530000
H      -40.68700000     -36.59970000     -71.91370000
C      -41.88590000     -32.19620000     -72.14420000
H      -42.39250000     -31.50130000     -72.83010000
H      -40.83540000     -32.07780000     -72.25530000
C      -44.52220000     -35.90330000     -74.51610000
H      -44.16340000     -36.20220000     -75.51430000
H      -45.03150000     -36.81100000     -74.11100000
S      -42.08700000     -31.67500000     -70.44840000
S      -45.85260000     -34.65170000     -74.93430000
C      -43.78750000     -32.17170000     -69.92770000
H      -43.91060000     -33.17110000     -70.22420000
H      -43.65540000     -32.22760000     -68.84500000
C      -46.84220000     -34.36470000     -73.35700000
H      -47.39260000     -35.33780000     -73.21040000
H      -47.60430000     -33.60710000     -73.73810000
C      -46.10500000     -34.03600000     -72.00870000
H      -45.37710000     -34.87180000     -71.62880000
H      -45.43360000     -33.16710000     -72.20000000
C      -44.85090000     -31.02910000     -70.31160000
H      -44.94230000     -30.90320000     -71.44360000
H      -44.63690000     -30.10900000     -69.82370000
C      -46.23290000     -31.41310000     -69.70010000
C      -46.84400000     -30.61790000     -68.74570000
C      -47.00750000     -32.66550000     -70.00450000
H      -46.43870000     -29.65980000     -68.47470000
C      -48.18160000     -32.68510000     -69.20530000
C      -47.11210000     -33.76770000     -70.91580000
C      -48.22250000     -34.55420000     -70.80600000
S      -48.39240000     -31.31490000     -68.15900000
S      -49.27770000     -33.99880000     -69.51340000
H      -48.41670000     -35.48560000     -71.34710000
