40
Properties=species:S:1:pos:R:3 #=T CELL(abcABC):=T 1.889726e+02=T 90.00000=T Traj:=T positionsangstrom=T Step:=T 0=T Bead:=T pbc="F F F"
C      -42.58030000     -36.36650000     -73.23130000
C      -43.31500000     -35.23430000     -73.62630000
C      -42.93780000     -33.99740000     -73.15530000
C      -41.96240000     -33.78840000     -72.26290000
C      -41.12990000     -34.88940000     -71.95240000
C      -41.48160000     -36.18570000     -72.32500000
H      -42.80300000     -37.33300000     -73.58020000
H      -43.56690000     -33.17230000     -73.43600000
H      -40.36660000     -34.76520000     -71.18700000
H      -40.95070000     -37.07550000     -71.90540000
C      -41.69230000     -32.41970000     -71.78450000
H      -42.32140000     -31.74350000     -72.27930000
H      -40.64130000     -32.20990000     -72.02990000
C      -44.40780000     -35.47340000     -74.64170000
H      -43.92900000     -35.78800000     -75.52170000
H      -45.02120000     -36.33160000     -74.38460000
S      -42.04030000     -32.19170000     -69.95190000
S      -45.50590000     -33.99780000     -74.84700000
C      -43.78480000     -32.85740000     -69.82560000
H      -44.09050000     -33.71840000     -70.48760000
H      -43.99770000     -33.30000000     -68.85990000
C      -46.82130000     -34.33930000     -73.51910000
H      -47.06030000     -35.39260000     -73.70360000
H      -47.75820000     -33.87490000     -73.72070000
C      -46.37400000     -34.06380000     -72.14100000
H      -45.81200000     -34.98560000     -71.67350000
H      -45.51010000     -33.30250000     -72.20320000
C      -44.80310000     -31.60310000     -70.15040000
H      -44.78570000     -31.45550000     -71.22770000
H      -44.41230000     -30.65260000     -69.85920000
C      -46.16980000     -31.73450000     -69.70980000
C      -46.53360000     -31.01170000     -68.59380000
C      -47.22710000     -32.59980000     -70.12700000
H      -45.86500000     -30.28300000     -68.14210000
C      -48.39390000     -32.43160000     -69.38800000
C      -47.43410000     -33.67710000     -71.17460000
C      -48.72720000     -34.10970000     -71.22630000
S      -48.14680000     -31.31790000     -68.04840000
S      -49.73890000     -33.51020000     -69.90800000
H      -49.13070000     -34.85430000     -71.83950000
