40
Properties=species:S:1:pos:R:3 #=T CELL(abcABC):=T 1.889726e+02=T 90.00000=T Traj:=T positionsangstrom=T Step:=T 0=T Bead:=T pbc="F F F"
C      -42.71220000     -36.45170000     -73.25840000
C      -43.30300000     -35.26990000     -73.76020000
C      -42.93760000     -34.05380000     -73.22020000
C      -41.98380000     -33.93470000     -72.19620000
C      -41.44590000     -35.13700000     -71.68200000
C      -41.83690000     -36.42770000     -72.15200000
H      -42.91840000     -37.47090000     -73.67290000
H      -43.44200000     -33.15610000     -73.60740000
H      -40.72700000     -35.14710000     -70.80650000
H      -41.34350000     -37.32860000     -71.77910000
C      -41.55820000     -32.61720000     -71.64820000
H      -42.14200000     -31.86850000     -72.23700000
H      -40.54660000     -32.39100000     -71.62330000
C      -44.34890000     -35.40190000     -74.85670000
H      -43.92660000     -35.26730000     -75.86840000
H      -44.65970000     -36.45680000     -74.84820000
S      -42.03940000     -32.48100000     -69.78140000
S      -45.76700000     -34.18620000     -75.05680000
C      -43.84770000     -32.69960000     -69.79260000
H      -44.11530000     -33.64210000     -70.32230000
H      -44.06890000     -33.09410000     -68.74180000
C      -46.71790000     -34.21970000     -73.48270000
H      -47.20680000     -35.14960000     -73.14590000
H      -47.66600000     -33.61680000     -73.73070000
C      -46.02700000     -33.75970000     -72.14360000
H      -45.24190000     -34.45830000     -71.68810000
H      -45.34790000     -32.86370000     -72.19870000
C      -44.68960000     -31.49070000     -69.94470000
H      -44.64390000     -31.22450000     -70.99940000
H      -44.28400000     -30.67510000     -69.29460000
C      -46.11720000     -31.56790000     -69.52200000
C      -46.66170000     -30.77860000     -68.53900000
C      -47.09250000     -32.52300000     -70.07260000
H      -46.12410000     -30.02020000     -68.02570000
C      -48.31000000     -32.39040000     -69.39670000
C      -47.15260000     -33.52450000     -71.13240000
C      -48.37550000     -34.09720000     -71.26810000
S      -48.34400000     -31.14820000     -68.20360000
S      -49.55500000     -33.41240000     -70.05020000
H      -48.75690000     -34.92990000     -71.87720000
