40
Properties=species:S:1:pos:R:3 #=T CELL(abcABC):=T 1.889726e+02=T 90.00000=T Traj:=T positionsangstrom=T Step:=T 0=T Bead:=T pbc="F F F"
C      -43.18970000     -36.44760000     -72.92770000
C      -43.15150000     -35.28970000     -73.72420000
C      -42.71450000     -34.09370000     -73.15020000
C      -42.14250000     -34.10630000     -71.87410000
C      -42.14110000     -35.28270000     -71.10300000
C      -42.86380000     -36.37990000     -71.53180000
H      -43.52050000     -37.35420000     -73.37010000
H      -42.83380000     -33.09140000     -73.68720000
H      -41.85940000     -35.25110000     -70.05130000
H      -43.05090000     -37.21120000     -70.80060000
C      -41.49530000     -32.85560000     -71.31200000
H      -41.77670000     -31.98920000     -71.87440000
H      -40.38180000     -32.90740000     -71.28770000
C      -43.90790000     -35.33380000     -75.06370000
H      -43.14880000     -35.09920000     -75.81160000
H      -44.28800000     -36.38320000     -75.27980000
S      -42.01500000     -32.29080000     -69.60600000
S      -45.40290000     -34.18880000     -75.22680000
C      -43.83470000     -32.39950000     -69.32810000
H      -44.07840000     -33.50160000     -69.54660000
H      -43.91030000     -32.17390000     -68.29180000
C      -46.35890000     -34.44720000     -73.69290000
H      -46.27640000     -35.46410000     -73.45330000
H      -47.43920000     -34.31970000     -74.07080000
C      -46.09800000     -33.49700000     -72.49680000
H      -45.27320000     -33.77660000     -71.83780000
H      -45.90340000     -32.55220000     -72.86300000
C      -44.62220000     -31.33890000     -70.18800000
H      -44.38070000     -31.62700000     -71.18370000
H      -44.22150000     -30.34070000     -69.92260000
C      -46.10070000     -31.50260000     -69.81470000
C      -46.67410000     -30.82820000     -68.75530000
C      -47.11790000     -32.39590000     -70.39410000
H      -46.22770000     -30.13820000     -68.05950000
C      -48.25210000     -32.49370000     -69.58340000
C      -47.27440000     -33.33740000     -71.48560000
C      -48.45870000     -33.99540000     -71.45470000
S      -48.30910000     -31.35190000     -68.25770000
S      -49.49370000     -33.54690000     -70.09780000
H      -48.75700000     -34.60560000     -72.24480000
