40
Properties=species:S:1:pos:R:3 #=T CELL(abcABC):=T 1.889726e+02=T 90.00000=T Traj:=T positionsangstrom=T Step:=T 0=T Bead:=T pbc="F F F"
C      -43.99260000     -36.40110000     -71.95150000
C      -43.51210000     -35.53930000     -72.95610000
C      -42.62450000     -34.51600000     -72.57770000
C      -42.31570000     -34.20440000     -71.19510000
C      -42.84130000     -35.09960000     -70.20550000
C      -43.62460000     -36.17050000     -70.61350000
H      -44.71590000     -37.13870000     -72.18010000
H      -42.19070000     -33.90290000     -73.38740000
H      -42.56530000     -34.79550000     -69.20040000
H      -43.96270000     -36.87450000     -69.88000000
C      -41.41370000     -33.04400000     -70.94330000
H      -41.38120000     -32.46530000     -71.90440000
H      -40.41230000     -33.46030000     -70.75700000
C      -43.89290000     -35.83800000     -74.35510000
H      -43.07570000     -36.21100000     -74.92210000
H      -44.67250000     -36.62690000     -74.33020000
S      -41.83850000     -32.03650000     -69.53220000
S      -44.56660000     -34.29300000     -75.18870000
C      -43.70980000     -32.22650000     -69.05320000
H      -43.88490000     -33.26670000     -68.82990000
H      -43.82940000     -31.64500000     -68.17360000
C      -46.07560000     -33.93230000     -74.23070000
H      -46.71020000     -34.83770000     -74.07330000
H      -46.69160000     -33.26570000     -74.83420000
C      -45.83640000     -33.27640000     -72.87720000
H      -45.04280000     -33.74360000     -72.28330000
H      -45.47950000     -32.26420000     -73.08070000
C      -44.63800000     -31.66850000     -70.14260000
H      -44.40250000     -32.18700000     -71.06390000
H      -44.40680000     -30.61270000     -70.33140000
C      -46.15630000     -31.78640000     -69.79650000
C      -46.71680000     -31.36300000     -68.62600000
C      -47.11030000     -32.46200000     -70.72540000
H      -46.27690000     -30.76600000     -67.82900000
C      -48.35590000     -32.40980000     -70.14800000
C      -47.06950000     -33.16600000     -72.02170000
C      -48.36920000     -33.58860000     -72.29460000
S      -48.49920000     -31.63790000     -68.63260000
S      -49.58740000     -33.14640000     -71.12920000
H      -48.69520000     -34.18720000     -73.13310000
