40
Properties=species:S:1:pos:R:3 #=T CELL(abcABC):=T 1.889726e+02=T 90.00000=T Traj:=T positionsangstrom=T Step:=T 0=T Bead:=T pbc="F F F"
C      -43.80840000     -36.17120000     -72.43490000
C      -43.35620000     -35.17990000     -73.34180000
C      -42.50750000     -34.13570000     -72.97650000
C      -42.16800000     -34.08280000     -71.62480000
C      -42.54260000     -35.13450000     -70.71840000
C      -43.27130000     -36.25050000     -71.15850000
H      -44.49180000     -36.94200000     -72.81460000
H      -42.18410000     -33.36550000     -73.63310000
H      -42.27310000     -35.11250000     -69.71550000
H      -43.68800000     -37.01650000     -70.50250000
C      -41.34810000     -33.01780000     -71.02000000
H      -40.98100000     -32.21400000     -71.67890000
H      -40.44210000     -33.43550000     -70.58050000
C      -43.80120000     -35.30200000     -74.76790000
H      -42.97880000     -35.08790000     -75.47610000
H      -44.00930000     -36.35180000     -74.94350000
S      -42.00000000     -32.33420000     -69.41810000
S      -45.25550000     -34.29730000     -75.26820000
C      -43.89280000     -32.46990000     -69.51060000
H      -44.25990000     -33.40060000     -69.86330000
H      -44.14340000     -32.40780000     -68.44380000
C      -46.36360000     -34.45040000     -73.83670000
H      -46.38210000     -35.47860000     -73.39930000
H      -47.30150000     -34.32340000     -74.28280000
C      -46.06420000     -33.38660000     -72.75230000
H      -45.13830000     -33.49480000     -72.24170000
H      -45.89750000     -32.43800000     -73.28850000
C      -44.58900000     -31.39020000     -70.31990000
H      -44.25930000     -31.52100000     -71.38440000
H      -44.21730000     -30.41890000     -69.96860000
C      -46.11200000     -31.45890000     -70.00560000
C      -46.61810000     -30.84510000     -68.88000000
C      -47.04840000     -32.45620000     -70.55730000
H      -46.14450000     -30.04710000     -68.30630000
C      -48.25760000     -32.46060000     -69.80440000
C      -47.11810000     -33.28140000     -71.74290000
C      -48.35370000     -33.97920000     -71.77320000
S      -48.20400000     -31.38340000     -68.35460000
S      -49.45000000     -33.57460000     -70.41230000
H      -48.63550000     -34.83230000     -72.48700000
