40
Properties=species:S:1:pos:R:3 #=T CELL(abcABC):=T 1.889726e+02=T 90.00000=T Traj:=T positionsangstrom=T Step:=T 0=T Bead:=T pbc="F F F"
C      -43.78700000     -36.43540000     -72.18310000
C      -43.44790000     -35.49500000     -73.13590000
C      -42.75970000     -34.26210000     -72.72990000
C      -42.36920000     -34.13980000     -71.39800000
C      -42.73320000     -35.10100000     -70.43340000
C      -43.58420000     -36.17790000     -70.82030000
H      -44.31430000     -37.35980000     -72.46890000
H      -42.69050000     -33.34090000     -73.31740000
H      -42.53450000     -34.94570000     -69.33440000
H      -44.09530000     -36.76110000     -70.06220000
C      -41.46050000     -33.02040000     -70.96600000
H      -41.31540000     -32.25840000     -71.73800000
H      -40.49760000     -33.45830000     -70.74140000
C      -43.76890000     -35.74230000     -74.60130000
H      -42.90530000     -35.80730000     -75.26530000
H      -44.41220000     -36.61480000     -74.72800000
S      -41.92560000     -32.05480000     -69.37710000
S      -44.76420000     -34.20320000     -75.26490000
C      -43.79190000     -32.23750000     -69.23990000
H      -44.09770000     -33.24220000     -68.92970000
H      -43.89110000     -31.68230000     -68.33960000
C      -46.31080000     -34.23530000     -74.17000000
H      -46.60840000     -35.22920000     -74.13000000
H      -47.09260000     -33.62500000     -74.66390000
C      -46.03850000     -33.55390000     -72.79290000
H      -45.15750000     -34.00090000     -72.26730000
H      -45.62220000     -32.57520000     -73.14920000
C      -44.60170000     -31.65940000     -70.39600000
H      -44.45660000     -32.27610000     -71.31280000
H      -44.16720000     -30.64110000     -70.58620000
C      -46.08740000     -31.65250000     -70.00220000
C      -46.51700000     -31.05480000     -68.84290000
C      -47.16400000     -32.37550000     -70.69160000
H      -45.77780000     -30.54740000     -68.22530000
C      -48.32480000     -32.39910000     -69.95050000
C      -47.13150000     -33.28630000     -71.85860000
C      -48.44740000     -33.83030000     -71.99910000
S      -48.19020000     -31.47090000     -68.50100000
S      -49.58680000     -33.37980000     -70.71780000
H      -48.71240000     -34.44880000     -72.86670000
