40
Properties=species:S:1:pos:R:3 #=T CELL(abcABC):=T 1.889726e+02=T 90.00000=T Traj:=T positionsangstrom=T Step:=T 0=T Bead:=T pbc="F F F"
C      -43.75900000     -36.52350000     -71.75980000
C      -43.43010000     -35.58440000     -72.75520000
C      -42.70510000     -34.45440000     -72.30690000
C      -42.08570000     -34.37300000     -71.08620000
C      -42.23160000     -35.49310000     -70.16180000
C      -43.19480000     -36.48270000     -70.44870000
H      -44.44210000     -37.32090000     -72.02820000
H      -42.54810000     -33.58680000     -72.97080000
H      -41.85030000     -35.49500000     -69.17150000
H      -43.45560000     -37.27260000     -69.76340000
C      -41.36400000     -33.10980000     -70.67900000
H      -41.30830000     -32.42410000     -71.55250000
H      -40.34510000     -33.31430000     -70.44590000
C      -43.79900000     -35.78100000     -74.19990000
H      -42.92320000     -36.16540000     -74.75920000
H      -44.58260000     -36.60560000     -74.26960000
S      -42.03130000     -32.25310000     -69.17150000
S      -44.42100000     -34.28940000     -75.04180000
C      -43.87960000     -32.44670000     -69.14030000
H      -44.15020000     -33.51570000     -69.00000000
H      -44.06850000     -31.91250000     -68.18140000
C      -46.10640000     -33.89630000     -74.25370000
H      -46.53940000     -34.86890000     -73.95680000
H      -46.75440000     -33.45990000     -75.02330000
C      -46.03790000     -32.92380000     -73.11070000
H      -45.25100000     -33.20210000     -72.40880000
H      -45.65890000     -31.92140000     -73.46580000
C      -44.64440000     -31.90330000     -70.37980000
H      -44.36790000     -32.48580000     -71.29370000
H      -44.37600000     -30.88730000     -70.55570000
C      -46.19940000     -31.89060000     -70.03340000
C      -46.73690000     -31.53940000     -68.83710000
C      -47.25320000     -32.25020000     -70.96130000
H      -46.03460000     -31.08220000     -68.08190000
C      -48.53710000     -32.22600000     -70.34230000
C      -47.34380000     -32.71730000     -72.29440000
C      -48.64390000     -33.05110000     -72.66370000
S      -48.42900000     -31.71680000     -68.63410000
S      -49.74870000     -32.84960000     -71.36020000
H      -48.95120000     -33.43410000     -73.66850000
