40
Properties=species:S:1:pos:R:3 #=T CELL(abcABC):=T 1.889726e+02=T 90.00000=T Traj:=T positionsangstrom=T Step:=T 0=T Bead:=T pbc="F F F"
C      -44.15970000     -37.01920000     -72.46720000
C      -45.50990000     -36.65070000     -72.17370000
C      -45.74990000     -36.17300000     -70.78370000
C      -44.74950000     -36.17310000     -69.85640000
C      -43.46390000     -36.60590000     -70.15790000
C      -43.22800000     -37.08520000     -71.46970000
H      -43.89540000     -37.38540000     -73.46470000
H      -46.68420000     -35.95920000     -70.49610000
H      -42.69810000     -36.65920000     -69.48260000
H      -42.27860000     -37.56860000     -71.64310000
C      -45.09150000     -35.79880000     -68.44530000
H      -44.96260000     -36.65240000     -67.81540000
H      -46.16430000     -35.45630000     -68.37560000
C      -46.59550000     -36.63630000     -73.16690000
H      -46.45500000     -37.19520000     -74.12040000
H      -47.51100000     -37.08360000     -72.72300000
S      -44.15750000     -34.50350000     -67.60850000
S      -47.09660000     -34.85570000     -73.73500000
C      -44.61570000     -33.04610000     -68.70440000
H      -45.69250000     -33.04420000     -68.85610000
H      -44.48100000     -32.13580000     -68.08480000
C      -47.97720000     -34.15780000     -72.26640000
H      -48.45820000     -34.90490000     -71.68170000
H      -48.67530000     -33.50660000     -72.72520000
C      -47.02150000     -33.29640000     -71.39590000
H      -47.56250000     -33.09120000     -70.46220000
H      -46.17650000     -33.87720000     -71.10040000
C      -43.87490000     -32.99720000     -69.98200000
H      -44.25480000     -33.92800000     -70.52870000
H      -42.77140000     -33.04760000     -69.83940000
C      -44.14940000     -31.72160000     -70.79430000
C      -43.33260000     -30.66670000     -70.71530000
C      -45.33860000     -31.40650000     -71.69410000
H      -42.56570000     -30.74360000     -69.96920000
C      -45.23770000     -30.07050000     -72.30360000
C      -46.60580000     -32.04970000     -72.02160000
C      -47.30900000     -31.27550000     -72.90640000
S      -43.82600000     -29.27070000     -71.58880000
S      -46.58760000     -29.70150000     -73.31540000
H      -48.36990000     -31.39400000     -73.29670000
