40
Properties=species:S:1:pos:R:3 #=T CELL(abcABC):=T 1.889726e+02=T 90.00000=T Traj:=T positionsangstrom=T Step:=T 0=T Bead:=T pbc="F F F"
C      -42.35370000     -34.47300000     -68.73920000
C      -43.25200000     -33.43160000     -68.38890000
C      -43.29170000     -32.27130000     -69.16960000
C      -42.34740000     -32.16640000     -70.22830000
C      -41.57920000     -33.21780000     -70.67010000
C      -41.64370000     -34.43780000     -69.90340000
H      -42.33330000     -35.29990000     -68.06750000
H      -43.89970000     -31.51260000     -68.81200000
H      -40.86090000     -33.05100000     -71.45960000
H      -40.95240000     -35.21590000     -70.17000000
C      -42.12940000     -30.78440000     -70.79630000
H      -41.08440000     -30.70090000     -71.23820000
H      -42.30170000     -30.14720000     -69.92080000
C      -44.18680000     -33.59610000     -67.22060000
H      -43.71380000     -34.10530000     -66.30780000
H      -44.70270000     -32.64980000     -66.92080000
S      -43.02810000     -30.30720000     -72.28490000
S      -45.37170000     -35.04180000     -67.71950000
C      -44.76170000     -30.97470000     -72.41410000
H      -45.39050000     -31.04770000     -71.55300000
H      -45.21820000     -30.39090000     -73.23570000
C      -46.72400000     -34.40750000     -68.94200000
H      -47.11210000     -33.38610000     -68.63370000
H      -47.51730000     -35.10300000     -68.86530000
C      -46.18690000     -34.17260000     -70.33260000
H      -45.78210000     -33.16210000     -70.30630000
H      -45.29460000     -34.85920000     -70.47230000
C      -44.69030000     -32.50610000     -72.85530000
H      -44.34160000     -33.03520000     -71.97670000
H      -43.99830000     -32.77330000     -73.62150000
C      -45.97230000     -33.04330000     -73.44190000
C      -46.30490000     -32.82140000     -74.76730000
C      -46.99410000     -33.67500000     -72.74070000
H      -45.72390000     -32.19890000     -75.50130000
C      -48.10160000     -34.02240000     -73.54430000
C      -47.10730000     -34.34820000     -71.50100000
C      -48.20070000     -35.16870000     -71.32810000
S      -47.87460000     -33.60470000     -75.21850000
S      -49.11550000     -35.28630000     -72.86920000
H      -48.51500000     -35.64220000     -70.41590000
