40
Properties=species:S:1:pos:R:3 #=T CELL(abcABC):=T 1.889726e+02=T 90.00000=T Traj:=T positionsangstrom=T Step:=T 0=T Bead:=T pbc="F F F"
C      -44.27710000     -37.03440000     -72.55100000
C      -45.58890000     -36.66300000     -72.19120000
C      -45.84190000     -36.36660000     -70.81090000
C      -44.75270000     -36.21460000     -69.89960000
C      -43.48770000     -36.65850000     -70.26500000
C      -43.28630000     -37.03940000     -71.59780000
H      -44.10970000     -37.54430000     -73.47450000
H      -46.82610000     -36.24560000     -70.42350000
H      -42.67540000     -36.64710000     -69.59710000
H      -42.36040000     -37.28490000     -72.00460000
C      -45.14130000     -35.98760000     -68.46130000
H      -44.97470000     -36.88130000     -67.84520000
H      -46.21430000     -35.89460000     -68.39260000
C      -46.78650000     -36.50910000     -73.21140000
H      -46.45810000     -37.01570000     -74.11680000
H      -47.71090000     -36.92110000     -72.90620000
S      -44.32960000     -34.48400000     -67.64700000
S      -47.11200000     -34.79180000     -73.76330000
C      -44.63620000     -33.02680000     -68.65720000
H      -45.70400000     -32.91560000     -68.83940000
H      -44.24200000     -32.34180000     -67.92540000
C      -48.00750000     -34.16330000     -72.18650000
H      -48.47300000     -35.04150000     -71.68670000
H      -48.97910000     -33.63220000     -72.49990000
C      -47.07340000     -33.34270000     -71.30880000
H      -47.42310000     -33.19860000     -70.27240000
H      -46.16190000     -34.02030000     -71.16360000
C      -43.87520000     -32.92020000     -69.94440000
H      -44.15330000     -33.66260000     -70.64680000
H      -42.88860000     -33.22920000     -69.72200000
C      -44.10130000     -31.58030000     -70.71380000
C      -43.21010000     -30.59510000     -70.74380000
C      -45.23430000     -31.44940000     -71.56870000
H      -42.25340000     -30.57030000     -70.26580000
C      -45.15610000     -30.16680000     -72.13180000
C      -46.49310000     -32.03490000     -71.88480000
C      -47.24310000     -31.26230000     -72.74460000
S      -43.69900000     -29.22810000     -71.82870000
S      -46.45190000     -29.72920000     -73.16250000
H      -48.26670000     -31.51080000     -73.14120000
