40
Properties=species:S:1:pos:R:3 #=T CELL(abcABC):=T 1.889726e+02=T 90.00000=T Traj:=T positionsangstrom=T Step:=T 0=T Bead:=T pbc="F F F"
C      -42.40140000     -32.58480000     -73.94310000
C      -43.48370000     -31.68990000     -73.69410000
C      -43.58350000     -31.11270000     -72.41520000
C      -42.58170000     -31.27360000     -71.44630000
C      -41.55900000     -32.20960000     -71.74410000
C      -41.42540000     -32.80080000     -72.98800000
H      -42.47860000     -33.12140000     -74.89590000
H      -44.41100000     -30.40140000     -72.21660000
H      -40.84400000     -32.45200000     -70.94260000
H      -40.61750000     -33.56850000     -73.08320000
C      -42.60750000     -30.58960000     -70.12580000
H      -43.37320000     -29.80770000     -70.25260000
H      -41.70160000     -30.04180000     -69.97590000
C      -44.62260000     -31.60400000     -74.69710000
H      -45.06280000     -30.53290000     -74.61780000
H      -44.35890000     -31.69510000     -75.78990000
S      -43.02030000     -31.50660000     -68.58190000
S      -46.00540000     -32.82350000     -74.38290000
C      -44.73960000     -32.24200000     -68.86780000
H      -45.28660000     -31.97580000     -67.89160000
H      -45.16050000     -31.76160000     -69.72210000
C      -45.04640000     -34.36010000     -73.90810000
H      -44.01720000     -34.19040000     -74.20430000
H      -45.43910000     -35.30140000     -74.47050000
C      -44.96530000     -34.55600000     -72.37890000
H      -44.06290000     -35.10940000     -72.13580000
H      -44.55010000     -33.58500000     -72.00670000
C      -44.77710000     -33.71640000     -69.04230000
H      -44.25420000     -34.14370000     -68.12770000
H      -44.08890000     -33.91830000     -69.88850000
C      -46.20430000     -34.18760000     -69.24300000
C      -47.06400000     -34.37850000     -68.15610000
C      -46.76660000     -34.66000000     -70.48970000
H      -46.71150000     -34.36250000     -67.11700000
C      -48.07130000     -35.11270000     -70.27640000
C      -46.31160000     -34.91150000     -71.82890000
C      -47.27980000     -35.44180000     -72.61290000
S      -48.66870000     -34.99630000     -68.58650000
S      -48.73410000     -35.77460000     -71.72950000
H      -47.12750000     -35.78720000     -73.62990000
