40
Properties=species:S:1:pos:R:3 #=T CELL(abcABC):=T 1.889726e+02=T 90.00000=T Traj:=T positionsangstrom=T Step:=T 0=T Bead:=T pbc="F F F"
C      -42.28160000     -34.58570000     -69.37270000
C      -43.13270000     -33.73480000     -68.60990000
C      -43.18540000     -32.40280000     -68.94490000
C      -42.43200000     -31.78790000     -69.97090000
C      -41.53520000     -32.60350000     -70.61940000
C      -41.52580000     -34.01480000     -70.36060000
H      -42.15940000     -35.65580000     -69.18840000
H      -43.95740000     -31.76840000     -68.50550000
H      -40.98270000     -32.36210000     -71.47900000
H      -40.99000000     -34.65860000     -70.99200000
C      -42.65470000     -30.35700000     -70.38750000
H      -41.68550000     -29.90240000     -70.33270000
H      -43.39580000     -29.90680000     -69.71500000
C      -43.98460000     -34.41080000     -67.55070000
H      -43.64740000     -35.43130000     -67.48580000
H      -43.88040000     -33.97120000     -66.52040000
S      -43.13330000     -30.27650000     -72.16490000
S      -45.81710000     -34.49470000     -67.68450000
C      -44.68720000     -31.23350000     -72.20160000
H      -45.23030000     -31.28830000     -71.16880000
H      -45.38640000     -30.58200000     -72.73360000
C      -46.26850000     -34.01510000     -69.43720000
H      -45.98310000     -32.92300000     -69.51000000
H      -47.41290000     -34.02330000     -69.47360000
C      -45.62560000     -34.90580000     -70.59200000
H      -44.63690000     -34.41770000     -70.87130000
H      -45.32270000     -35.90400000     -70.30430000
C      -44.68650000     -32.51210000     -73.04240000
H      -44.13230000     -33.42610000     -72.65890000
H      -44.11620000     -32.28550000     -73.95540000
C      -46.11710000     -32.91840000     -73.35070000
C      -46.77050000     -32.32240000     -74.37680000
C      -46.87640000     -33.98430000     -72.73810000
H      -46.47970000     -31.48920000     -74.95160000
C      -48.09200000     -34.19920000     -73.42850000
C      -46.59310000     -35.00690000     -71.76370000
C      -47.49670000     -36.01480000     -71.71900000
S      -48.35470000     -33.10800000     -74.71460000
S      -48.84970000     -35.72050000     -72.86420000
H      -47.43780000     -36.88880000     -71.08370000
