40
Properties=species:S:1:pos:R:3 #=T CELL(abcABC):=T 1.889726e+02=T 90.00000=T Traj:=T positionsangstrom=T Step:=T 0=T Bead:=T pbc="F F F"
C      -42.73620000     -37.17220000     -71.98870000
C      -43.33260000     -36.02710000     -72.57360000
C      -42.89250000     -34.77070000     -72.23210000
C      -42.02570000     -34.57010000     -71.14780000
C      -41.53380000     -35.64840000     -70.45680000
C      -41.88380000     -36.96270000     -70.91250000
H      -43.12400000     -38.11870000     -72.29130000
H      -43.26760000     -33.86070000     -72.69690000
H      -40.90270000     -35.63250000     -69.51160000
H      -41.58670000     -37.81260000     -70.30080000
C      -41.81680000     -33.12860000     -70.79060000
H      -42.20890000     -32.48430000     -71.56650000
H      -40.71680000     -32.98540000     -70.72760000
C      -44.28220000     -36.30760000     -73.78440000
H      -43.82620000     -36.97690000     -74.55750000
H      -45.18780000     -36.74700000     -73.29670000
S      -42.38330000     -32.75560000     -69.08690000
S      -44.72300000     -34.85920000     -74.73640000
C      -44.21040000     -32.67560000     -69.25390000
H      -44.57610000     -33.57750000     -69.74770000
H      -44.57640000     -32.86380000     -68.19640000
C      -46.26920000     -34.53670000     -73.80980000
H      -46.78680000     -35.42610000     -73.37940000
H      -46.93170000     -34.01600000     -74.55980000
C      -45.95240000     -33.56540000     -72.57350000
H      -45.37500000     -34.08860000     -71.84520000
H      -45.41500000     -32.71480000     -73.00770000
C      -44.67380000     -31.37310000     -69.96320000
H      -44.31400000     -31.27280000     -71.03190000
H      -44.25180000     -30.50180000     -69.39960000
C      -46.22370000     -31.33810000     -69.98430000
C      -46.84010000     -30.66090000     -68.95980000
C      -47.19840000     -31.95930000     -70.93700000
H      -46.32850000     -30.06570000     -68.24400000
C      -48.47150000     -31.49360000     -70.66850000
C      -47.19880000     -33.01990000     -72.01900000
C      -48.49250000     -33.19720000     -72.40150000
S      -48.54950000     -30.50690000     -69.18490000
S      -49.67510000     -32.19550000     -71.65880000
H      -48.77990000     -34.01570000     -73.03070000
