40
Properties=species:S:1:pos:R:3 #=T CELL(abcABC):=T 1.889726e+02=T 90.00000=T Traj:=T positionsangstrom=T Step:=T 0=T Bead:=T pbc="F F F"
C      -42.19560000     -34.68490000     -69.33780000
C      -43.06650000     -33.85640000     -68.67100000
C      -43.21430000     -32.48410000     -69.11390000
C      -42.43310000     -31.95300000     -70.10350000
C      -41.48900000     -32.82540000     -70.75050000
C      -41.39740000     -34.16930000     -70.37410000
H      -42.01320000     -35.72330000     -69.02300000
H      -43.78960000     -31.79490000     -68.44350000
H      -40.84770000     -32.36440000     -71.50020000
H      -40.62810000     -34.81570000     -70.77090000
C      -42.42240000     -30.47490000     -70.58030000
H      -41.40780000     -30.07390000     -70.74980000
H      -42.92270000     -29.75390000     -69.90910000
C      -43.79270000     -34.32650000     -67.42850000
H      -43.41230000     -35.20310000     -66.96130000
H      -43.69770000     -33.45370000     -66.66580000
S      -43.10320000     -30.29710000     -72.23920000
S      -45.72200000     -34.53410000     -67.61820000
C      -44.85620000     -30.91090000     -72.09140000
H      -45.13610000     -31.01100000     -71.05790000
H      -45.46660000     -30.24770000     -72.60460000
C      -46.37180000     -34.02240000     -69.26240000
H      -46.36200000     -33.00820000     -69.56340000
H      -47.41640000     -34.20080000     -69.11290000
C      -45.79230000     -34.92970000     -70.46680000
H      -44.79980000     -34.51820000     -70.73020000
H      -45.74560000     -35.94160000     -70.09990000
C      -44.81450000     -32.28960000     -72.73330000
H      -44.44210000     -32.99260000     -71.92810000
H      -44.13230000     -32.38290000     -73.52020000
C      -46.16430000     -32.79710000     -73.21520000
C      -46.76450000     -32.35600000     -74.34580000
C      -46.90670000     -33.97050000     -72.73800000
H      -46.45910000     -31.44980000     -74.88740000
C      -48.03400000     -34.22090000     -73.51730000
C      -46.82000000     -34.91860000     -71.62890000
C      -47.79960000     -35.85500000     -71.66770000
S      -48.32560000     -33.06910000     -74.76900000
S      -48.86350000     -35.72840000     -73.04620000
H      -47.98430000     -36.60140000     -70.87580000
