40
Properties=species:S:1:pos:R:3 #=T CELL(abcABC):=T 1.889726e+02=T 90.00000=T Traj:=T positionsangstrom=T Step:=T 0=T Bead:=T pbc="F F F"
C      -42.24460000     -34.29930000     -68.76380000
C      -43.28490000     -33.46380000     -68.30430000
C      -43.40230000     -32.23090000     -68.84160000
C      -42.60600000     -31.81580000     -69.96870000
C      -41.63130000     -32.70270000     -70.49750000
C      -41.42110000     -33.93600000     -69.90030000
H      -42.20860000     -35.31690000     -68.39770000
H      -44.19910000     -31.50520000     -68.65210000
H      -40.90450000     -32.38400000     -71.31380000
H      -40.70300000     -34.63450000     -70.29180000
C      -42.77990000     -30.39370000     -70.33440000
H      -41.91070000     -29.72080000     -70.18040000
H      -43.56240000     -29.94270000     -69.71580000
C      -44.11430000     -33.87200000     -67.16230000
H      -43.76300000     -34.89840000     -66.79170000
H      -44.18760000     -33.18050000     -66.29970000
S      -43.32510000     -30.15230000     -72.13130000
S      -45.86480000     -34.28100000     -67.88560000
C      -44.96070000     -31.05660000     -72.22520000
H      -45.46190000     -31.24000000     -71.29160000
H      -45.64260000     -30.47180000     -72.89510000
C      -46.03180000     -33.90170000     -69.66950000
H      -45.50530000     -32.94880000     -69.89560000
H      -47.08580000     -33.84300000     -69.75980000
C      -45.68740000     -35.17550000     -70.55870000
H      -44.62360000     -35.24170000     -70.79640000
H      -45.82850000     -36.04700000     -69.83070000
C      -44.70750000     -32.49090000     -72.87010000
H      -44.15490000     -33.13970000     -72.19870000
H      -43.91690000     -32.28580000     -73.70140000
C      -45.96710000     -33.09590000     -73.51830000
C      -46.60600000     -32.58740000     -74.60970000
C      -46.71840000     -34.13620000     -72.74850000
H      -46.25570000     -31.81860000     -75.26000000
C      -47.82720000     -34.48910000     -73.57540000
C      -46.59710000     -35.18660000     -71.72490000
C      -47.63980000     -36.03610000     -71.76280000
S      -48.07810000     -33.40720000     -74.91700000
S      -48.75200000     -35.85520000     -73.11000000
H      -47.84740000     -36.86930000     -71.11530000
