40
Properties=species:S:1:pos:R:3 #=T CELL(abcABC):=T 1.889726e+02=T 90.00000=T Traj:=T positionsangstrom=T Step:=T 0=T Bead:=T pbc="F F F"
C      -42.66540000     -34.31740000     -68.84720000
C      -43.62850000     -33.39980000     -68.34790000
C      -43.60600000     -32.03480000     -68.81050000
C      -42.65740000     -31.60500000     -69.80000000
C      -41.71000000     -32.57310000     -70.20810000
C      -41.71090000     -33.92440000     -69.80500000
H      -42.66920000     -35.31820000     -68.44950000
H      -44.32880000     -31.29890000     -68.38830000
H      -40.92320000     -32.22710000     -70.89650000
H      -40.99220000     -34.65800000     -70.04650000
C      -42.62930000     -30.23910000     -70.38280000
H      -41.63440000     -29.74330000     -70.28220000
H      -43.26870000     -29.49200000     -69.82950000
C      -44.53890000     -33.66540000     -67.21580000
H      -43.89020000     -34.43160000     -66.65210000
H      -44.70790000     -32.78700000     -66.64150000
S      -43.01620000     -30.14650000     -72.21150000
S      -46.14750000     -34.53450000     -67.63640000
C      -44.75060000     -30.92620000     -72.37180000
H      -45.42710000     -30.50520000     -71.58970000
H      -45.15140000     -30.50970000     -73.26780000
C      -46.48200000     -34.04990000     -69.40810000
H      -46.01500000     -33.03880000     -69.55020000
H      -47.58550000     -33.98560000     -69.39260000
C      -45.91140000     -35.06950000     -70.42880000
H      -44.81740000     -35.06030000     -70.61690000
H      -45.91960000     -36.07210000     -70.01000000
C      -44.82170000     -32.43730000     -72.38790000
H      -44.89690000     -32.85770000     -71.35920000
H      -43.88180000     -32.84280000     -72.81950000
C      -45.95660000     -33.01710000     -73.19420000
C      -46.38310000     -32.43220000     -74.38880000
C      -46.67330000     -34.25480000     -72.79280000
H      -45.96540000     -31.50970000     -74.80670000
C      -47.49050000     -34.64060000     -73.87520000
C      -46.76650000     -35.16600000     -71.66950000
C      -47.77510000     -36.08390000     -71.87510000
S      -47.54350000     -33.50950000     -75.22220000
S      -48.51310000     -35.96370000     -73.51270000
H      -48.13890000     -36.88120000     -71.26240000
