40
Properties=species:S:1:pos:R:3 #=T CELL(abcABC):=T 1.889726e+02=T 90.00000=T Traj:=T positionsangstrom=T Step:=T 0=T Bead:=T pbc="F F F"
C      -43.65490000     -36.90250000     -71.06970000
C      -43.43440000     -36.18850000     -72.27400000
C      -42.70280000     -35.02010000     -72.14200000
C      -42.10500000     -34.58450000     -70.99150000
C      -42.35460000     -35.27600000     -69.78760000
C      -43.06700000     -36.48520000     -69.89360000
H      -44.23080000     -37.86590000     -71.18560000
H      -42.43320000     -34.56750000     -73.13650000
H      -42.09020000     -35.00740000     -68.78900000
H      -43.20090000     -37.02820000     -69.01470000
C      -41.29880000     -33.31060000     -70.94580000
H      -41.06270000     -32.92020000     -71.88530000
H      -40.34430000     -33.35090000     -70.40140000
C      -44.13960000     -36.61620000     -73.51260000
H      -43.51860000     -37.36050000     -74.10430000
H      -44.94360000     -37.24410000     -73.13370000
S      -42.11600000     -31.93850000     -69.97870000
S      -44.82040000     -35.28550000     -74.62290000
C      -43.89610000     -32.28550000     -69.88380000
H      -44.22250000     -33.27730000     -70.15250000
H      -44.25990000     -32.29770000     -68.86740000
C      -46.21270000     -34.69490000     -73.66630000
H      -46.78540000     -35.42870000     -73.05710000
H      -46.97850000     -34.34230000     -74.39060000
C      -45.85720000     -33.56320000     -72.65290000
H      -44.98940000     -33.85950000     -72.08190000
H      -45.45540000     -32.76850000     -73.26050000
C      -44.64610000     -31.27440000     -70.70650000
H      -44.46580000     -31.44420000     -71.73190000
H      -44.31430000     -30.20640000     -70.44300000
C      -46.10930000     -31.20680000     -70.49660000
C      -46.67460000     -30.11580000     -69.83210000
C      -47.14130000     -32.05670000     -70.96260000
H      -46.05450000     -29.27870000     -69.44830000
C      -48.39190000     -31.72760000     -70.49120000
C      -47.11370000     -33.19480000     -71.87890000
C      -48.39000000     -33.80260000     -71.92630000
S      -48.38420000     -30.24840000     -69.57850000
S      -49.58460000     -32.88920000     -70.98370000
H      -48.57790000     -34.70350000     -72.50570000
