40
Properties=species:S:1:pos:R:3 #=T CELL(abcABC):=T 1.889726e+02=T 90.00000=T Traj:=T positionsangstrom=T Step:=T 0=T Bead:=T pbc="F F F"
C      -42.45820000     -34.27000000     -68.89790000
C      -43.44100000     -33.41710000     -68.42740000
C      -43.45220000     -32.06100000     -68.85180000
C      -42.48640000     -31.63220000     -69.69950000
C      -41.49580000     -32.47350000     -70.19420000
C      -41.49000000     -33.80630000     -69.76130000
H      -42.59980000     -35.30790000     -68.59920000
H      -44.26540000     -31.47310000     -68.52440000
H      -40.83870000     -32.11410000     -70.92720000
H      -40.79830000     -34.51130000     -70.14950000
C      -42.65510000     -30.23690000     -70.37200000
H      -41.67760000     -29.80770000     -70.34810000
H      -43.29470000     -29.53480000     -69.79000000
C      -44.40230000     -33.77320000     -67.34280000
H      -44.05510000     -34.35960000     -66.49310000
H      -44.65480000     -32.79390000     -66.89810000
S      -43.06470000     -30.35390000     -72.13180000
S      -46.06880000     -34.40270000     -67.78890000
C      -44.78880000     -30.95120000     -72.16210000
H      -45.25390000     -30.65540000     -71.19670000
H      -45.30320000     -30.37730000     -72.91330000
C      -46.46450000     -33.93570000     -69.46740000
H      -46.17800000     -32.95470000     -69.79420000
H      -47.55510000     -34.01080000     -69.56180000
C      -45.92680000     -35.00100000     -70.47280000
H      -44.89770000     -34.65410000     -70.74780000
H      -45.92680000     -35.98530000     -70.00080000
C      -44.85970000     -32.43920000     -72.56410000
H      -44.68590000     -33.06120000     -71.66780000
H      -44.01640000     -32.58100000     -73.23000000
C      -46.12740000     -32.96070000     -73.25650000
C      -46.41530000     -32.56390000     -74.56190000
C      -46.82900000     -34.15010000     -72.77630000
H      -46.07440000     -31.63390000     -75.13060000
C      -47.81770000     -34.54220000     -73.70360000
C      -46.78990000     -35.08380000     -71.68920000
C      -47.62760000     -36.13530000     -71.85770000
S      -47.75990000     -33.51260000     -75.21060000
S      -48.57170000     -36.05000000     -73.31660000
H      -47.84930000     -36.96290000     -71.21700000
