40
Properties=species:S:1:pos:R:3 #=T CELL(abcABC):=T 1.889726e+02=T 90.00000=T Traj:=T positionsangstrom=T Step:=T 0=T Bead:=T pbc="F F F"
C      -42.36710000     -32.37240000     -73.89420000
C      -43.53960000     -31.66390000     -73.57630000
C      -43.65420000     -31.10330000     -72.29230000
C      -42.65650000     -31.30150000     -71.32590000
C      -41.60830000     -32.16680000     -71.64190000
C      -41.46850000     -32.69940000     -72.87530000
H      -42.22220000     -32.67860000     -74.90150000
H      -44.55260000     -30.53330000     -71.98160000
H      -40.85950000     -32.28380000     -70.86670000
H      -40.61940000     -33.29720000     -73.11560000
C      -42.65910000     -30.43390000     -70.11630000
H      -43.41130000     -29.58720000     -70.30610000
H      -41.68630000     -30.01380000     -69.76690000
C      -44.65010000     -31.50800000     -74.60960000
H      -45.15560000     -30.50610000     -74.39850000
H      -44.17650000     -31.70300000     -75.54060000
S      -43.17720000     -31.37700000     -68.56940000
S      -45.92810000     -32.89550000     -74.43110000
C      -44.84240000     -32.06980000     -69.01340000
H      -45.55350000     -31.82150000     -68.24050000
H      -45.16960000     -31.54200000     -69.88930000
C      -44.92240000     -34.44250000     -74.01320000
H      -43.86070000     -34.37320000     -74.30190000
H      -45.41790000     -35.23100000     -74.54230000
C      -44.99220000     -34.83810000     -72.53720000
H      -44.57890000     -35.88050000     -72.58590000
H      -44.57460000     -34.21230000     -71.80540000
C      -44.69400000     -33.53910000     -69.20670000
H      -44.20070000     -33.97340000     -68.36270000
H      -44.07730000     -33.74630000     -70.07720000
C      -46.03050000     -34.26290000     -69.37960000
C      -46.83160000     -34.42410000     -68.25800000
C      -46.72870000     -34.76440000     -70.56800000
H      -46.45330000     -34.20850000     -67.26220000
C      -47.98010000     -35.21490000     -70.23150000
C      -46.46680000     -35.05400000     -72.00510000
C      -47.53480000     -35.53500000     -72.67430000
S      -48.40090000     -35.07800000     -68.56060000
S      -48.85150000     -35.77920000     -71.56250000
H      -47.61080000     -35.70260000     -73.71880000
