40
Properties=species:S:1:pos:R:3 #=T CELL(abcABC):=T 1.889726e+02=T 90.00000=T Traj:=T positionsangstrom=T Step:=T 0=T Bead:=T pbc="F F F"
C      -43.94400000     -36.81960000     -71.19130000
C      -43.43290000     -36.23020000     -72.37020000
C      -42.61420000     -35.07280000     -72.31780000
C      -42.24430000     -34.46740000     -71.05130000
C      -42.66520000     -35.12860000     -69.94570000
C      -43.51700000     -36.23700000     -69.98460000
H      -44.49420000     -37.70300000     -71.15430000
H      -42.26060000     -34.53710000     -73.15200000
H      -42.65600000     -34.60590000     -68.97460000
H      -43.90050000     -36.71530000     -69.07520000
C      -41.56900000     -33.17810000     -71.03600000
H      -41.66060000     -32.78440000     -72.04630000
H      -40.52000000     -33.25810000     -70.75570000
C      -43.95650000     -36.75300000     -73.68170000
H      -43.14380000     -37.11670000     -74.25640000
H      -44.57930000     -37.66870000     -73.55510000
S      -42.13110000     -31.97500000     -69.76220000
S      -44.78040000     -35.39100000     -74.66360000
C      -43.97980000     -31.99090000     -69.77610000
H      -44.23360000     -33.03130000     -70.01080000
H      -44.40180000     -31.73300000     -68.76470000
C      -46.07070000     -34.77890000     -73.55430000
H      -46.76750000     -35.54660000     -73.25960000
H      -46.69270000     -34.15730000     -74.21550000
C      -45.73110000     -33.96640000     -72.39540000
H      -45.17940000     -34.60830000     -71.64660000
H      -45.01030000     -33.23820000     -72.72040000
C      -44.63430000     -30.93620000     -70.77970000
H      -44.22360000     -31.18810000     -71.82060000
H      -44.38110000     -29.96730000     -70.56120000
C      -46.12910000     -31.04590000     -70.62890000
C      -46.65400000     -29.98680000     -69.93330000
C      -47.05130000     -32.07140000     -70.96430000
H      -46.12790000     -29.11140000     -69.62800000
C      -48.31720000     -31.77830000     -70.45670000
C      -46.97660000     -33.30780000     -71.75080000
C      -48.21420000     -33.89580000     -71.82690000
S      -48.31560000     -30.28410000     -69.53040000
S      -49.46460000     -32.99440000     -70.99980000
H      -48.39760000     -34.85870000     -72.27170000
