40
Properties=species:S:1:pos:R:3 #=T CELL(abcABC):=T 1.889726e+02=T 90.00000=T Traj:=T positionsangstrom=T Step:=T 0=T Bead:=T pbc="F F F"
C      -44.70350000     -36.55910000     -71.26140000
C      -44.34490000     -36.03640000     -72.54590000
C      -45.26060000     -35.49760000     -73.46570000
C      -46.60930000     -35.46030000     -73.13540000
C      -46.98230000     -35.90610000     -71.89300000
C      -46.05980000     -36.32120000     -70.93280000
H      -43.94790000     -37.04920000     -70.61550000
H      -44.94170000     -35.24350000     -74.45050000
H      -48.01010000     -35.85870000     -71.48770000
H      -46.45190000     -36.68050000     -69.95360000
C      -47.63640000     -34.93840000     -74.18840000
H      -48.65470000     -35.24650000     -73.92390000
H      -47.36930000     -35.37770000     -75.18450000
C      -42.87950000     -36.29320000     -72.86240000
H      -42.49910000     -37.08810000     -72.20110000
H      -42.73390000     -36.68920000     -73.94240000
S      -47.52000000     -33.11000000     -74.49870000
S      -41.65010000     -34.90510000     -72.69520000
C      -47.84470000     -32.36990000     -72.82920000
H      -48.64600000     -31.57260000     -72.88870000
H      -48.05190000     -33.11700000     -72.11410000
C      -42.22500000     -34.06710000     -71.16210000
H      -41.30230000     -33.54880000     -70.72000000
H      -42.55820000     -34.72880000     -70.34120000
C      -43.34560000     -32.99670000     -71.50270000
H      -42.92030000     -32.14220000     -72.03630000
H      -44.06910000     -33.50510000     -72.13180000
C      -46.58710000     -31.61220000     -72.38190000
H      -46.63670000     -30.61670000     -72.87240000
H      -45.72880000     -32.24650000     -72.79240000
C      -46.47700000     -31.39670000     -70.89630000
C      -47.54620000     -30.88040000     -70.14890000
C      -45.34120000     -31.72670000     -70.08670000
H      -48.52560000     -30.56630000     -70.61950000
C      -45.57650000     -31.32140000     -68.76640000
C      -44.08690000     -32.46970000     -70.20630000
C      -43.49500000     -32.51750000     -68.97240000
S      -47.15730000     -30.57250000     -68.47700000
S      -44.34810000     -31.70840000     -67.65210000
H      -42.53150000     -32.99830000     -68.73830000
