40
Properties=species:S:1:pos:R:3 #=T CELL(abcABC):=T 1.889726e+02=T 90.00000=T Traj:=T positionsangstrom=T Step:=T 0=T Bead:=T pbc="F F F"
C      -43.67920000     -37.11960000     -71.47030000
C      -43.58670000     -36.25360000     -72.53530000
C      -42.93700000     -35.04510000     -72.40640000
C      -42.42490000     -34.68130000     -71.12320000
C      -42.47190000     -35.52390000     -70.02890000
C      -43.08430000     -36.80390000     -70.23020000
H      -44.18570000     -38.05740000     -71.58940000
H      -42.96630000     -34.41650000     -73.34050000
H      -42.13720000     -35.18250000     -69.03330000
H      -43.05700000     -37.58310000     -69.48260000
C      -41.54190000     -33.42870000     -71.05860000
H      -41.52100000     -32.83480000     -72.00090000
H      -40.53010000     -33.62580000     -70.74170000
C      -44.21470000     -36.65710000     -73.88850000
H      -43.38570000     -37.00880000     -74.57050000
H      -44.92130000     -37.46330000     -73.71800000
S      -41.89560000     -32.09300000     -69.76830000
S      -44.99290000     -35.30460000     -74.79110000
C      -43.72640000     -32.02310000     -69.50940000
H      -44.10410000     -33.05900000     -69.47680000
H      -43.84080000     -31.55380000     -68.49720000
C      -46.34540000     -34.68750000     -73.75980000
H      -47.03560000     -35.52350000     -73.46320000
H      -46.88860000     -34.07880000     -74.51790000
C      -46.01800000     -33.77470000     -72.52310000
H      -45.49620000     -34.24960000     -71.69850000
H      -45.29510000     -33.02660000     -72.89270000
C      -44.44030000     -31.23390000     -70.63200000
H      -44.34520000     -31.64530000     -71.65790000
H      -44.13710000     -30.23520000     -70.62640000
C      -45.94680000     -31.21500000     -70.32940000
C      -46.34950000     -30.22060000     -69.45300000
C      -47.02670000     -32.04990000     -70.79420000
H      -45.68110000     -29.46000000     -69.13760000
C      -48.24890000     -31.66110000     -70.27520000
C      -47.21440000     -33.10130000     -71.83080000
C      -48.53540000     -33.47870000     -72.04150000
S      -48.13200000     -30.22460000     -69.16340000
S      -49.64510000     -32.48290000     -71.10320000
H      -48.84550000     -34.32380000     -72.64350000
