40
Properties=species:S:1:pos:R:3 #=T CELL(abcABC):=T 1.889726e+02=T 90.00000=T Traj:=T positionsangstrom=T Step:=T 0=T Bead:=T pbc="F F F"
C      -44.78020000     -36.42200000     -71.35660000
C      -44.17620000     -36.08300000     -72.59180000
C      -45.07720000     -35.66290000     -73.67020000
C      -46.43370000     -35.46280000     -73.50990000
C      -46.97430000     -35.66830000     -72.19190000
C      -46.18660000     -36.19370000     -71.16660000
H      -44.18500000     -36.64040000     -70.51840000
H      -44.52080000     -35.56530000     -74.63470000
H      -48.07990000     -35.55790000     -72.04190000
H      -46.52270000     -36.33130000     -70.18060000
C      -47.34320000     -34.92990000     -74.59480000
H      -48.39580000     -35.21380000     -74.47030000
H      -47.01580000     -35.16330000     -75.57970000
C      -42.76450000     -36.29820000     -72.88640000
H      -42.41400000     -37.10790000     -72.13900000
H      -42.71930000     -36.73640000     -73.82460000
S      -47.32590000     -33.00040000     -74.63000000
S      -41.74380000     -34.76630000     -72.62310000
C      -47.51900000     -32.51460000     -72.84060000
H      -48.48280000     -32.12790000     -72.65880000
H      -47.36250000     -33.53700000     -72.30400000
C      -42.35660000     -34.17240000     -70.94730000
H      -41.60590000     -33.58690000     -70.38120000
H      -42.70230000     -35.03430000     -70.29000000
C      -43.52420000     -33.14910000     -71.14910000
H      -43.25710000     -32.27720000     -71.71420000
H      -44.23060000     -33.56010000     -71.90930000
C      -46.40550000     -31.60680000     -72.32840000
H      -46.47550000     -30.70290000     -72.88480000
H      -45.46310000     -32.07070000     -72.65350000
C      -46.43750000     -31.49560000     -70.86640000
C      -47.51740000     -30.80730000     -70.28580000
C      -45.40450000     -31.78490000     -69.91150000
H      -48.35870000     -30.49130000     -70.87280000
C      -45.65520000     -31.26290000     -68.65240000
C      -44.19350000     -32.59650000     -69.92070000
C      -43.60350000     -32.66770000     -68.68170000
S      -47.34130000     -30.54840000     -68.49180000
S      -44.54200000     -31.81570000     -67.44960000
H      -42.68640000     -32.96140000     -68.29890000
