40
Properties=species:S:1:pos:R:3 #=T CELL(abcABC):=T 1.889726e+02=T 90.00000=T Traj:=T positionsangstrom=T Step:=T 0=T Bead:=T pbc="F F F"
C      -44.78360000     -36.92670000     -71.56160000
C      -44.61640000     -36.32540000     -72.79930000
C      -45.74180000     -35.70830000     -73.41480000
C      -46.99810000     -35.92500000     -72.91160000
C      -47.12340000     -36.76910000     -71.77460000
C      -46.00880000     -37.25410000     -71.08710000
H      -43.87530000     -37.37130000     -71.06410000
H      -45.61460000     -34.95190000     -74.21930000
H      -48.06530000     -37.03870000     -71.37670000
H      -46.11380000     -37.98980000     -70.26990000
C      -48.12860000     -35.13990000     -73.52540000
H      -49.12450000     -35.46870000     -73.07990000
H      -48.22830000     -35.43950000     -74.58130000
C      -43.23070000     -36.25900000     -73.36980000
H      -42.43040000     -36.66100000     -72.69640000
H      -43.21110000     -36.96720000     -74.20580000
S      -47.80250000     -33.29620000     -73.64090000
S      -42.71620000     -34.51410000     -73.77400000
C      -47.63560000     -32.77570000     -71.93200000
H      -48.69250000     -32.46360000     -71.54430000
H      -47.11880000     -33.59570000     -71.36290000
C      -42.60550000     -33.74330000     -72.08230000
H      -41.81780000     -32.99190000     -72.02560000
H      -42.32640000     -34.52200000     -71.34980000
C      -43.96470000     -33.06580000     -71.74140000
H      -44.22140000     -32.31650000     -72.46960000
H      -44.74110000     -33.76850000     -71.90150000
C      -46.82410000     -31.45290000     -71.94380000
H      -47.50400000     -30.68920000     -72.40930000
H      -46.07350000     -31.64920000     -72.64910000
C      -46.33770000     -31.14730000     -70.54060000
C      -47.01030000     -30.26090000     -69.71740000
C      -45.11390000     -31.64380000     -69.94860000
H      -47.97270000     -29.78840000     -69.92730000
C      -45.00500000     -31.17410000     -68.61740000
C      -43.99340000     -32.45370000     -70.39850000
C      -42.97710000     -32.52280000     -69.40490000
S      -46.16490000     -29.98190000     -68.17830000
S      -43.46360000     -31.60630000     -67.92110000
H      -42.17510000     -33.20190000     -69.35240000
