40
Properties=species:S:1:pos:R:3 #=T CELL(abcABC):=T 1.889726e+02=T 90.00000=T Traj:=T positionsangstrom=T Step:=T 0=T Bead:=T pbc="F F F"
C      -45.66330000     -33.10040000     -66.88480000
C      -45.76680000     -33.86820000     -68.01360000
C      -46.12820000     -33.30030000     -69.23050000
C      -46.22260000     -31.94340000     -69.42370000
C      -46.00500000     -31.08790000     -68.32660000
C      -45.74400000     -31.66040000     -67.08360000
H      -45.41500000     -33.43030000     -65.88460000
H      -46.27190000     -33.99370000     -70.04100000
H      -46.01390000     -29.99360000     -68.36070000
H      -45.68490000     -31.09460000     -66.13070000
C      -46.32720000     -31.47030000     -70.88550000
H      -47.23580000     -30.87530000     -70.92680000
H      -46.36490000     -32.30010000     -71.61990000
C      -45.52790000     -35.37750000     -67.84720000
H      -45.27730000     -35.42850000     -66.77740000
H      -46.48380000     -35.94720000     -68.08470000
S      -44.86790000     -30.40340000     -71.34910000
S      -44.08920000     -36.11710000     -68.66890000
C      -43.43850000     -31.50210000     -71.23720000
H      -42.58720000     -30.94580000     -70.81480000
H      -43.53850000     -32.25380000     -70.46260000
C      -44.60650000     -36.42580000     -70.38360000
H      -45.64190000     -36.51740000     -70.42160000
H      -44.15470000     -37.43040000     -70.63230000
C      -44.18070000     -35.24340000     -71.28600000
H      -44.15840000     -34.34360000     -70.72830000
H      -43.17700000     -35.37800000     -71.69560000
C      -43.03440000     -32.14940000     -72.54730000
H      -42.41520000     -33.00170000     -72.37630000
H      -42.40990000     -31.42150000     -73.08740000
C      -44.20030000     -32.58840000     -73.37010000
C      -44.76160000     -31.64980000     -74.19640000
C      -44.92300000     -33.82260000     -73.33790000
H      -44.44570000     -30.63290000     -74.31430000
C      -45.93950000     -33.80760000     -74.34960000
C      -45.10870000     -34.98570000     -72.49290000
C      -46.14010000     -35.81640000     -72.88270000
S      -46.15050000     -32.29570000     -75.10360000
S      -47.04430000     -35.08400000     -74.25700000
H      -46.45530000     -36.75400000     -72.37490000
