40
Properties=species:S:1:pos:R:3 #=T CELL(abcABC):=T 1.889726e+02=T 90.00000=T Traj:=T positionsangstrom=T Step:=T 0=T Bead:=T pbc="F F F"
C      -44.83200000     -32.90180000     -67.04850000
C      -45.53810000     -33.76400000     -67.98780000
C      -46.25950000     -33.20860000     -69.10160000
C      -46.19170000     -31.81620000     -69.35010000
C      -45.47110000     -31.03410000     -68.41350000
C      -44.84460000     -31.51610000     -67.27830000
H      -44.32610000     -33.42900000     -66.21780000
H      -46.77720000     -33.86800000     -69.83920000
H      -45.29190000     -30.02400000     -68.68280000
H      -44.38150000     -30.80060000     -66.64190000
C      -46.55250000     -31.22670000     -70.67910000
H      -47.39240000     -30.53080000     -70.54920000
H      -46.76570000     -32.02500000     -71.35940000
C      -45.55290000     -35.25450000     -67.94030000
H      -45.71690000     -35.73990000     -66.95550000
H      -46.38790000     -35.57670000     -68.57080000
S      -45.10660000     -30.33810000     -71.42470000
S      -44.13310000     -36.31450000     -68.69200000
C      -43.62080000     -31.49270000     -71.03030000
H      -42.87740000     -30.72410000     -70.75830000
H      -43.88120000     -32.23610000     -70.27950000
C      -44.72050000     -36.54850000     -70.41680000
H      -45.81570000     -36.56920000     -70.35530000
H      -44.44680000     -37.49270000     -70.74070000
C      -44.20710000     -35.51700000     -71.46170000
H      -43.92880000     -34.56260000     -70.87040000
H      -43.29080000     -35.86220000     -71.93920000
C      -43.17630000     -32.15820000     -72.33090000
H      -42.39930000     -32.93140000     -72.09750000
H      -42.60760000     -31.42730000     -72.91470000
C      -44.26420000     -32.63100000     -73.29970000
C      -44.56940000     -31.83080000     -74.36430000
C      -45.15730000     -33.76020000     -73.22850000
H      -43.90250000     -30.95410000     -74.65230000
C      -46.16420000     -33.71890000     -74.13960000
C      -45.29030000     -35.04940000     -72.39700000
C      -46.39990000     -35.74010000     -72.85040000
S      -45.98480000     -32.47020000     -75.25980000
S      -47.29170000     -35.02440000     -74.13930000
H      -46.74890000     -36.65090000     -72.43740000
