40
Properties=species:S:1:pos:R:3 #=T CELL(abcABC):=T 1.889726e+02=T 90.00000=T Traj:=T positionsangstrom=T Step:=T 0=T Bead:=T pbc="F F F"
C      -44.73460000     -37.05260000     -72.27680000
C      -44.88010000     -36.20450000     -73.37290000
C      -46.03400000     -35.48760000     -73.63100000
C      -47.07620000     -35.63840000     -72.68560000
C      -46.87450000     -36.43840000     -71.52940000
C      -45.68840000     -37.11640000     -71.30340000
H      -43.81080000     -37.55710000     -72.12880000
H      -46.20650000     -34.88750000     -74.54370000
H      -47.68560000     -36.53590000     -70.77910000
H      -45.46490000     -37.62860000     -70.41430000
C      -48.44580000     -35.08310000     -72.85390000
H      -49.06490000     -35.31010000     -71.99250000
H      -49.03110000     -35.41110000     -73.72680000
C      -43.63010000     -36.00230000     -74.22330000
H      -42.90720000     -36.83950000     -73.91170000
H      -43.83200000     -36.19740000     -75.29680000
S      -48.52880000     -33.23480000     -73.00080000
S      -42.72790000     -34.36870000     -74.16930000
C      -47.47670000     -32.83980000     -71.48730000
H      -48.04160000     -33.06080000     -70.65860000
H      -46.61030000     -33.52560000     -71.49020000
C      -42.70020000     -33.77980000     -72.39610000
H      -41.88760000     -33.05350000     -72.37540000
H      -42.44500000     -34.55200000     -71.66870000
C      -43.95090000     -33.01140000     -72.03710000
H      -44.06410000     -32.18680000     -72.74440000
H      -44.85450000     -33.63980000     -72.08760000
C      -46.99530000     -31.40980000     -71.55430000
H      -47.81280000     -30.66000000     -71.63310000
H      -46.40440000     -31.21540000     -72.43130000
C      -46.19800000     -31.00510000     -70.37000000
C      -46.64970000     -30.14240000     -69.37650000
C      -44.93620000     -31.64060000     -69.99390000
H      -47.64910000     -29.79580000     -69.26280000
C      -44.63540000     -31.29920000     -68.64510000
C      -43.95260000     -32.52490000     -70.57810000
C      -42.92940000     -32.70580000     -69.65890000
S      -45.78190000     -30.24670000     -67.84090000
S      -43.20660000     -32.02970000     -68.03430000
H      -42.12180000     -33.40020000     -69.93240000
