40
Properties=species:S:1:pos:R:3 #=T CELL(abcABC):=T 1.889726e+02=T 90.00000=T Traj:=T positionsangstrom=T Step:=T 0=T Bead:=T pbc="F F F"
C      -44.17360000     -38.08030000     -72.19040000
C      -45.31700000     -37.21270000     -71.88460000
C      -45.33850000     -36.42280000     -70.69440000
C      -44.24770000     -36.52400000     -69.84910000
C      -43.09560000     -37.29770000     -70.18460000
C      -43.06810000     -38.07810000     -71.32680000
H      -44.07010000     -38.52300000     -73.12840000
H      -46.07360000     -35.68950000     -70.55510000
H      -42.27320000     -37.30400000     -69.48720000
H      -42.15070000     -38.60430000     -71.59490000
C      -44.27350000     -35.68680000     -68.51210000
H      -43.97540000     -36.38770000     -67.68490000
H      -45.18920000     -35.17630000     -68.35870000
C      -46.44580000     -37.04700000     -72.91540000
H      -46.71850000     -37.92440000     -73.51930000
H      -47.30400000     -36.74720000     -72.39280000
S      -43.10500000     -34.20790000     -68.36860000
S      -45.96690000     -35.62340000     -74.09530000
C      -44.21430000     -32.76430000     -68.52160000
H      -45.03910000     -32.71140000     -67.76460000
H      -43.50510000     -31.98330000     -68.34240000
C      -46.31500000     -34.14380000     -73.05750000
H      -46.24010000     -34.29990000     -71.93010000
H      -47.33600000     -33.78890000     -73.24670000
C      -45.26370000     -32.96010000     -73.40430000
H      -44.31760000     -33.12000000     -72.82080000
H      -44.93000000     -32.99640000     -74.46900000
C      -44.85200000     -32.67110000     -69.93100000
H      -45.76360000     -33.32720000     -69.85240000
H      -44.20730000     -33.27190000     -70.61990000
C      -45.27200000     -31.35910000     -70.38980000
C      -45.53710000     -30.31800000     -69.45340000
C      -45.82480000     -30.97410000     -71.67790000
H      -45.38770000     -30.43920000     -68.32430000
C      -46.47510000     -29.78590000     -71.59100000
C      -45.86620000     -31.58840000     -73.03280000
C      -46.42420000     -30.73530000     -73.87590000
S      -46.49710000     -28.96590000     -70.03570000
S      -47.11650000     -29.23910000     -73.16600000
H      -46.69660000     -30.96200000     -74.94080000
