40
Properties=species:S:1:pos:R:3 #=T CELL(abcABC):=T 1.889726e+02=T 90.00000=T Traj:=T positionsangstrom=T Step:=T 0=T Bead:=T pbc="F F F"
C      -44.61580000     -36.66830000     -71.97000000
C      -44.80950000     -36.08370000     -73.27970000
C      -45.99830000     -35.56470000     -73.60610000
C      -47.06490000     -35.70080000     -72.73220000
C      -46.87310000     -36.22780000     -71.47490000
C      -45.65200000     -36.75590000     -71.04230000
H      -43.65680000     -37.10150000     -71.80000000
H      -46.02170000     -34.98120000     -74.49820000
H      -47.69430000     -36.33580000     -70.83790000
H      -45.55410000     -37.33790000     -70.14560000
C      -48.44910000     -35.20280000     -72.89220000
H      -49.14570000     -35.58780000     -72.13060000
H      -48.83980000     -35.67200000     -73.82750000
C      -43.65700000     -36.01570000     -74.21470000
H      -42.87310000     -36.77440000     -73.91510000
H      -43.97140000     -36.12850000     -75.27290000
S      -48.52490000     -33.37270000     -72.88900000
S      -43.09330000     -34.23880000     -74.36960000
C      -47.57630000     -32.94470000     -71.41690000
H      -48.13940000     -33.00400000     -70.47060000
H      -46.64700000     -33.62870000     -71.27990000
C      -42.95560000     -33.50420000     -72.68330000
H      -42.60250000     -32.49460000     -72.80390000
H      -42.11930000     -34.02770000     -72.34630000
C      -44.20020000     -33.39750000     -71.82430000
H      -44.98430000     -32.94590000     -72.35190000
H      -44.55210000     -34.37630000     -71.55780000
C      -47.16720000     -31.44840000     -71.54610000
H      -48.04230000     -30.79880000     -71.37220000
H      -46.65740000     -31.19640000     -72.45620000
C      -46.25300000     -31.19650000     -70.29100000
C      -46.65520000     -30.44020000     -69.19800000
C      -44.94510000     -31.70860000     -69.95440000
H      -47.66830000     -29.87180000     -69.22130000
C      -44.48920000     -31.28350000     -68.70220000
C      -43.97210000     -32.64830000     -70.53140000
C      -42.88280000     -32.86060000     -69.76010000
S      -45.57160000     -30.27860000     -67.83190000
S      -42.85530000     -31.87870000     -68.29960000
H      -41.98640000     -33.50720000     -69.99800000
