40
Properties=species:S:1:pos:R:3 #=T CELL(abcABC):=T 1.889726e+02=T 90.00000=T Traj:=T positionsangstrom=T Step:=T 0=T Bead:=T pbc="F F F"
C      -44.66530000     -36.75230000     -72.12280000
C      -44.77500000     -36.01380000     -73.25850000
C      -46.03330000     -35.45960000     -73.67160000
C      -47.09990000     -35.72040000     -72.83190000
C      -46.98650000     -36.46590000     -71.66910000
C      -45.76210000     -36.92970000     -71.30110000
H      -43.70810000     -37.18490000     -71.99550000
H      -46.09030000     -34.70690000     -74.47330000
H      -47.87160000     -36.54680000     -71.04620000
H      -45.66430000     -37.49580000     -70.35450000
C      -48.43000000     -35.17310000     -73.18710000
H      -49.16550000     -35.77480000     -72.68480000
H      -48.48840000     -35.28150000     -74.26710000
C      -43.50760000     -35.82530000     -74.07470000
H      -42.68160000     -36.22620000     -73.42200000
H      -43.52390000     -36.51200000     -74.96740000
S      -48.58990000     -33.41930000     -72.91050000
S      -43.10660000     -34.10250000     -74.29170000
C      -47.80080000     -32.93850000     -71.24340000
H      -48.75170000     -32.64850000     -70.65450000
H      -47.37960000     -33.77970000     -70.80550000
C      -42.78010000     -33.73840000     -72.49680000
H      -41.88560000     -33.12580000     -72.48950000
H      -42.51450000     -34.71450000     -72.06220000
C      -44.04530000     -33.13580000     -71.91530000
H      -44.28930000     -32.16420000     -72.39030000
H      -44.94380000     -33.74630000     -72.02880000
C      -46.96350000     -31.68560000     -71.53980000
H      -47.65240000     -30.88690000     -71.74820000
H      -46.34240000     -31.83140000     -72.42670000
C      -46.08020000     -31.22790000     -70.35790000
C      -46.54240000     -30.33040000     -69.41650000
C      -44.84150000     -31.75320000     -69.86070000
H      -47.40040000     -29.76890000     -69.56490000
C      -44.49820000     -31.26170000     -68.57910000
C      -43.83580000     -32.61050000     -70.49960000
C      -42.78560000     -32.85260000     -69.64410000
S      -45.72790000     -30.17630000     -67.90440000
S      -42.94220000     -31.98720000     -68.05110000
H      -41.90710000     -33.37740000     -69.73560000
