40
Properties=species:S:1:pos:R:3 #=T CELL(abcABC):=T 1.889726e+02=T 90.00000=T Traj:=T positionsangstrom=T Step:=T 0=T Bead:=T pbc="F F F"
C      -44.07960000     -38.14830000     -72.09940000
C      -45.15400000     -37.16650000     -71.97430000
C      -45.23000000     -36.39260000     -70.80190000
C      -44.29720000     -36.50860000     -69.76480000
C      -43.14730000     -37.33400000     -69.95070000
C      -43.03710000     -38.03650000     -71.14130000
H      -44.16880000     -38.88000000     -72.88150000
H      -46.11820000     -35.81430000     -70.56340000
H      -42.28180000     -37.37600000     -69.23900000
H      -42.12670000     -38.66240000     -71.22470000
C      -44.49140000     -35.64060000     -68.61480000
H      -44.42350000     -36.35520000     -67.77760000
H      -45.49500000     -35.20620000     -68.57350000
C      -46.14790000     -36.98240000     -73.07260000
H      -46.01750000     -37.85960000     -73.77970000
H      -47.15240000     -37.12630000     -72.69770000
S      -43.05660000     -34.36240000     -68.46420000
S      -46.02920000     -35.51260000     -74.17770000
C      -44.08060000     -32.74680000     -68.63470000
H      -44.72570000     -32.61330000     -67.74810000
H      -43.26210000     -32.00560000     -68.59060000
C      -46.24940000     -34.17520000     -72.95870000
H      -46.07920000     -34.60850000     -71.98420000
H      -47.33050000     -33.87940000     -72.85890000
C      -45.35680000     -32.94320000     -73.34130000
H      -44.33790000     -33.09060000     -73.04060000
H      -45.15360000     -32.90240000     -74.42410000
C      -44.84230000     -32.73770000     -69.95490000
H      -45.60710000     -33.46310000     -69.96500000
H      -44.13950000     -32.88920000     -70.80920000
C      -45.56420000     -31.42510000     -70.29770000
C      -45.87730000     -30.44950000     -69.31630000
C      -45.98660000     -30.95850000     -71.60630000
H      -45.67290000     -30.41760000     -68.15580000
C      -46.56290000     -29.68030000     -71.56530000
C      -45.93880000     -31.58810000     -72.92970000
C      -46.44600000     -30.74230000     -73.86160000
S      -46.41430000     -28.89400000     -70.02150000
S      -47.01640000     -29.23850000     -73.22290000
H      -46.68250000     -30.94630000     -74.91890000
