40
Properties=species:S:1:pos:R:3 #=T CELL(abcABC):=T 1.889726e+02=T 90.00000=T Traj:=T positionsangstrom=T Step:=T 0=T Bead:=T pbc="F F F"
C      -42.10300000     -32.17400000     -73.61970000
C      -43.34650000     -31.55790000     -73.57180000
C      -43.59670000     -30.75180000     -72.48060000
C      -42.84490000     -30.73890000     -71.30850000
C      -41.57390000     -31.45900000     -71.38920000
C      -41.21140000     -32.20380000     -72.52330000
H      -41.81260000     -32.75690000     -74.44620000
H      -44.49870000     -30.19780000     -72.39470000
H      -40.93930000     -31.34510000     -70.52840000
H      -40.29720000     -32.79830000     -72.68100000
C      -43.29530000     -29.90370000     -70.12910000
H      -44.08340000     -29.18390000     -70.27410000
H      -42.45010000     -29.30980000     -69.81350000
C      -44.30670000     -31.79380000     -74.74730000
H      -44.71650000     -30.80170000     -75.06750000
H      -43.98150000     -32.09240000     -75.68780000
S      -43.79220000     -30.95990000     -68.69080000
S      -45.83820000     -32.71110000     -74.25690000
C      -45.18140000     -32.04490000     -69.11380000
H      -45.71710000     -32.09720000     -68.20220000
H      -45.88200000     -31.60470000     -69.88810000
C      -45.28380000     -34.45460000     -74.26430000
H      -44.24380000     -34.45500000     -74.82350000
H      -45.88300000     -35.06590000     -74.90250000
C      -45.03490000     -35.05030000     -72.81880000
H      -44.63180000     -36.09610000     -73.02370000
H      -44.26930000     -34.53180000     -72.27400000
C      -44.72400000     -33.50570000     -69.51670000
H      -43.89860000     -33.75490000     -68.77290000
H      -44.31420000     -33.57330000     -70.50370000
C      -45.92210000     -34.43020000     -69.36010000
C      -46.62070000     -34.63710000     -68.17870000
C      -46.58530000     -35.05230000     -70.52020000
H      -46.36330000     -34.10250000     -67.24550000
C      -47.79740000     -35.56990000     -70.19870000
C      -46.33680000     -35.34460000     -71.99900000
C      -47.35330000     -36.10600000     -72.55190000
S      -48.19470000     -35.32110000     -68.57290000
S      -48.68450000     -36.40190000     -71.49830000
H      -47.42310000     -36.45130000     -73.59590000
