40
Properties=species:S:1:pos:R:3 #=T CELL(abcABC):=T 1.889726e+02=T 90.00000=T Traj:=T positionsangstrom=T Step:=T 0=T Bead:=T pbc="F F F"
C      -44.15860000     -36.63820000     -69.79590000
C      -44.21270000     -36.61060000     -71.21250000
C      -43.26460000     -35.87190000     -71.90290000
C      -42.35940000     -35.03100000     -71.21510000
C      -42.35360000     -35.05430000     -69.81850000
C      -43.16590000     -35.91290000     -69.15000000
H      -44.87800000     -37.24300000     -69.35270000
H      -43.33220000     -35.77200000     -73.03830000
H      -41.61430000     -34.49770000     -69.24890000
H      -42.94190000     -36.15220000     -68.12050000
C      -41.48340000     -33.95920000     -71.95730000
H      -41.85900000     -33.68900000     -72.98850000
H      -40.44590000     -34.34410000     -71.98660000
C      -45.16350000     -37.43710000     -71.93490000
H      -44.71300000     -38.37840000     -72.30690000
H      -45.95890000     -37.78340000     -71.26530000
S      -41.48420000     -32.34880000     -71.14730000
S      -45.88440000     -36.53730000     -73.36820000
C      -43.23150000     -32.00760000     -70.59920000
H      -43.66420000     -32.97660000     -70.11250000
H      -43.23870000     -31.41300000     -69.73610000
C      -46.98620000     -35.30360000     -72.59800000
H      -47.06970000     -35.55840000     -71.51800000
H      -47.97210000     -35.45470000     -73.06480000
C      -46.52180000     -33.86630000     -72.91430000
H      -45.39670000     -33.90570000     -72.60610000
H      -46.56040000     -33.65350000     -74.00950000
C      -44.22320000     -31.44710000     -71.66790000
H      -44.47620000     -32.23350000     -72.45830000
H      -43.73860000     -30.64290000     -72.27430000
C      -45.49340000     -30.97320000     -71.09870000
C      -45.70340000     -29.87320000     -70.37700000
C      -46.78800000     -31.55640000     -71.51500000
H      -45.06350000     -29.21280000     -69.76100000
C      -47.86640000     -30.90570000     -70.89040000
C      -47.27830000     -32.79070000     -72.12410000
C      -48.61940000     -32.95380000     -72.02840000
S      -47.41350000     -29.58510000     -69.88330000
S      -49.36180000     -31.81820000     -70.92160000
H      -49.16600000     -33.68640000     -72.50190000
