40
Properties=species:S:1:pos:R:3 #=T CELL(abcABC):=T 1.889726e+02=T 90.00000=T Traj:=T positionsangstrom=T Step:=T 0=T Bead:=T pbc="F F F"
C      -44.09590000     -36.96530000     -69.78780000
C      -44.02080000     -36.85350000     -71.18910000
C      -43.30100000     -35.80430000     -71.80250000
C      -42.63170000     -34.90560000     -71.00800000
C      -42.85020000     -34.83980000     -69.63030000
C      -43.54070000     -35.88230000     -68.98130000
H      -44.80000000     -37.65990000     -69.28050000
H      -43.30160000     -35.77550000     -72.87490000
H      -42.24820000     -34.18510000     -69.03390000
H      -43.62040000     -35.94690000     -67.91070000
C      -41.69460000     -34.06880000     -71.78640000
H      -42.03290000     -34.26210000     -72.78840000
H      -40.71830000     -34.47100000     -71.77760000
C      -44.83050000     -37.79710000     -71.98210000
H      -44.23310000     -38.24400000     -72.77120000
H      -45.20370000     -38.58560000     -71.33990000
S      -41.53270000     -32.30590000     -71.29680000
S      -46.16830000     -36.82030000     -72.89860000
C      -43.32070000     -31.85110000     -70.80060000
H      -43.84700000     -32.68910000     -70.41620000
H      -43.16880000     -31.01700000     -70.04660000
C      -46.58290000     -35.40740000     -71.86470000
H      -45.99640000     -35.23870000     -70.91000000
H      -47.69540000     -35.54650000     -71.46760000
C      -46.40860000     -33.98190000     -72.64480000
H      -45.38830000     -33.84420000     -72.49890000
H      -46.57960000     -34.01430000     -73.76890000
C      -44.17280000     -31.28330000     -72.02530000
H      -44.37580000     -32.20840000     -72.64830000
H      -43.57980000     -30.49010000     -72.53690000
C      -45.44710000     -30.79510000     -71.47490000
C      -45.58160000     -29.65710000     -70.75480000
C      -46.67520000     -31.59840000     -71.49210000
H      -44.85540000     -28.91620000     -70.58390000
C      -47.73600000     -30.93890000     -70.90690000
C      -47.24020000     -32.78200000     -72.12990000
C      -48.59850000     -32.94440000     -72.06960000
S      -47.24280000     -29.41020000     -70.19990000
S      -49.29250000     -31.68400000     -71.14110000
H      -49.22540000     -33.74880000     -72.41010000
