40
Properties=species:S:1:pos:R:3 #=T CELL(abcABC):=T 1.889726e+02=T 90.00000=T Traj:=T positionsangstrom=T Step:=T 0=T Bead:=T pbc="F F F"
C      -44.05980000     -37.43890000     -72.12390000
C      -45.26240000     -36.88680000     -71.64700000
C      -45.32740000     -36.51480000     -70.29580000
C      -44.11940000     -36.52200000     -69.51700000
C      -43.01330000     -37.24060000     -69.94700000
C      -42.99060000     -37.68360000     -71.29330000
H      -43.93510000     -37.79670000     -73.20020000
H      -46.35190000     -36.16120000     -69.88460000
H      -42.07900000     -37.32270000     -69.40740000
H      -42.09910000     -38.08070000     -71.79280000
C      -44.12690000     -35.81560000     -68.19110000
H      -43.60100000     -36.44580000     -67.44500000
H      -45.14840000     -35.52910000     -67.82110000
C      -46.48480000     -36.81550000     -72.53640000
H      -46.59840000     -37.71880000     -73.04600000
H      -47.36290000     -36.63670000     -71.85600000
S      -43.10120000     -34.31780000     -68.32300000
S      -46.22500000     -35.69490000     -74.00130000
C      -44.40020000     -33.04840000     -68.80450000
H      -45.41040000     -33.29840000     -68.48560000
H      -44.04180000     -32.14640000     -68.26640000
C      -46.59320000     -33.97870000     -73.31530000
H      -46.80770000     -34.12420000     -72.21890000
H      -47.64100000     -33.60770000     -73.62010000
C      -45.51050000     -32.98740000     -73.57540000
H      -44.63280000     -33.30950000     -72.99940000
H      -45.08060000     -33.06500000     -74.60390000
C      -44.43230000     -32.78110000     -70.31860000
H      -45.03100000     -33.56930000     -70.86350000
H      -43.34910000     -32.75040000     -70.64590000
C      -45.20780000     -31.50070000     -70.63560000
C      -45.36970000     -30.47920000     -69.62710000
C      -45.87260000     -31.06640000     -71.80440000
H      -44.79150000     -30.55220000     -68.76690000
C      -46.41600000     -29.71850000     -71.73650000
C      -45.92560000     -31.55580000     -73.17940000
C      -46.55040000     -30.67930000     -74.00980000
S      -46.38840000     -29.17860000     -70.04410000
S      -47.11550000     -29.20440000     -73.24220000
H      -46.68370000     -30.86080000     -75.07460000
