40
Properties=species:S:1:pos:R:3 #=T CELL(abcABC):=T 1.889726e+02=T 90.00000=T Traj:=T positionsangstrom=T Step:=T 0=T Bead:=T pbc="F F F"
C      -44.44370000     -36.53610000     -72.54050000
C      -45.28300000     -36.55850000     -71.41300000
C      -44.75440000     -36.29320000     -70.14890000
C      -43.42670000     -35.92920000     -70.03860000
C      -42.55130000     -36.00880000     -71.17820000
C      -43.08590000     -36.39310000     -72.41030000
H      -44.84330000     -36.75000000     -73.53800000
H      -45.45310000     -36.25590000     -69.24260000
H      -41.50890000     -35.87050000     -70.98060000
H      -42.57750000     -36.44530000     -73.30160000
C      -42.82020000     -35.52340000     -68.67010000
H      -42.09730000     -36.28360000     -68.33130000
H      -43.65850000     -35.39330000     -67.96910000
C      -46.78200000     -36.94940000     -71.50800000
H      -46.87480000     -38.09490000     -71.55210000
H      -47.33260000     -36.55700000     -70.62530000
S      -42.05380000     -33.77080000     -68.70500000
S      -47.60020000     -36.27910000     -73.01490000
C      -43.61530000     -32.85650000     -69.16130000
H      -44.48850000     -33.34320000     -68.84540000
H      -43.57630000     -31.85490000     -68.67820000
C      -47.97540000     -34.52950000     -72.74190000
H      -48.76720000     -34.49140000     -72.08170000
H      -48.33740000     -34.13490000     -73.66760000
C      -46.70540000     -33.83200000     -72.23900000
H      -46.49360000     -34.14220000     -71.18970000
H      -45.75470000     -34.03010000     -72.72800000
C      -43.79670000     -32.69940000     -70.71660000
H      -44.25770000     -33.66940000     -71.04890000
H      -42.77160000     -32.81600000     -71.11000000
C      -44.59370000     -31.48360000     -71.12720000
C      -44.07600000     -30.18860000     -70.92650000
C      -45.99060000     -31.39830000     -71.64550000
H      -43.05780000     -29.99260000     -70.66830000
C      -46.42550000     -30.09340000     -71.80230000
C      -46.97040000     -32.34660000     -72.15760000
C      -48.08360000     -31.70390000     -72.65270000
S      -45.25940000     -28.93730000     -71.27020000
S      -48.01710000     -29.95000000     -72.47090000
H      -48.97320000     -32.18280000     -73.00840000
