40
Properties=species:S:1:pos:R:3 #=T CELL(abcABC):=T 1.889726e+02=T 90.00000=T Traj:=T positionsangstrom=T Step:=T 0=T Bead:=T pbc="F F F"
C      -45.58530000     -37.72550000     -71.20310000
C      -45.46410000     -36.72810000     -72.21770000
C      -46.57030000     -35.89850000     -72.56800000
C      -47.78630000     -36.06420000     -71.90650000
C      -47.90960000     -37.00670000     -70.84090000
C      -46.83480000     -37.83050000     -70.57440000
H      -44.80400000     -38.40940000     -70.99300000
H      -46.50320000     -35.40910000     -73.49310000
H      -48.96260000     -37.20800000     -70.40310000
H      -46.98900000     -38.55650000     -69.77320000
C      -48.93870000     -35.21710000     -72.29550000
H      -49.71750000     -35.10190000     -71.46430000
H      -49.56280000     -35.66020000     -73.06770000
C      -44.22670000     -36.66140000     -73.08270000
H      -43.36680000     -37.20310000     -72.67710000
H      -44.41310000     -37.23120000     -73.97410000
S      -48.46410000     -33.63990000     -73.03710000
S      -43.76080000     -35.00680000     -73.64820000
C      -47.60520000     -32.89390000     -71.59030000
H      -48.21050000     -32.15820000     -71.06880000
H      -47.32900000     -33.77530000     -70.89750000
C      -43.20820000     -34.10230000     -72.06580000
H      -42.36400000     -34.57490000     -71.56150000
H      -44.07970000     -34.08240000     -71.39370000
C      -42.79190000     -32.64130000     -72.35180000
H      -41.74000000     -32.51440000     -72.71900000
H      -43.44960000     -32.31120000     -73.21390000
C      -46.25470000     -32.22040000     -71.96430000
H      -46.48980000     -31.50300000     -72.79180000
H      -45.60880000     -32.86620000     -72.44610000
C      -45.56660000     -31.47480000     -70.78510000
C      -46.37240000     -30.77690000     -69.86570000
C      -44.22520000     -31.21520000     -70.51040000
H      -47.43710000     -30.80120000     -69.71320000
C      -44.02940000     -30.37610000     -69.43860000
C      -42.96400000     -31.66080000     -71.10130000
C      -41.85240000     -31.30240000     -70.35920000
S      -45.50360000     -30.04520000     -68.60600000
S      -42.30670000     -30.11310000     -69.12170000
H      -40.80940000     -31.51910000     -70.67120000
