40
Properties=species:S:1:pos:R:3 #=T CELL(abcABC):=T 1.889726e+02=T 90.00000=T Traj:=T positionsangstrom=T Step:=T 0=T Bead:=T pbc="F F F"
C      -44.45130000     -36.75160000     -72.57780000
C      -45.27340000     -36.56820000     -71.45790000
C      -44.69630000     -36.15100000     -70.22710000
C      -43.28510000     -36.01590000     -70.15080000
C      -42.50750000     -36.08080000     -71.32270000
C      -43.11000000     -36.42760000     -72.54960000
H      -44.82720000     -36.88990000     -73.56760000
H      -45.28080000     -36.10860000     -69.34200000
H      -41.49380000     -35.60630000     -71.30280000
H      -42.58460000     -36.63440000     -73.43200000
C      -42.72120000     -35.67740000     -68.85040000
H      -41.73380000     -36.14260000     -68.72160000
H      -43.30310000     -35.99210000     -67.98620000
C      -46.73290000     -36.88150000     -71.53040000
H      -46.97750000     -37.94070000     -71.44940000
H      -47.18800000     -36.43910000     -70.70790000
S      -42.32630000     -33.89040000     -68.62880000
S      -47.46790000     -36.36750000     -73.17760000
C      -43.73500000     -32.70010000     -69.04800000
H      -44.62990000     -33.00570000     -68.41540000
H      -43.17210000     -31.78900000     -68.75160000
C      -47.87510000     -34.56890000     -72.94520000
H      -48.99310000     -34.51720000     -72.59600000
H      -47.73150000     -34.21280000     -74.03980000
C      -46.89640000     -33.80990000     -71.99410000
H      -47.08360000     -34.15000000     -71.01680000
H      -45.87900000     -34.19040000     -72.31390000
C      -43.97470000     -32.63890000     -70.52970000
H      -44.60810000     -33.48360000     -70.80160000
H      -43.03630000     -32.78110000     -71.11730000
C      -44.69760000     -31.39930000     -70.94670000
C      -44.17090000     -30.16370000     -70.57530000
C      -45.95380000     -31.34490000     -71.60000000
H      -43.19790000     -29.90410000     -70.13920000
C      -46.35230000     -30.04200000     -71.83530000
C      -46.98150000     -32.27870000     -72.04600000
C      -48.09400000     -31.67380000     -72.56070000
S      -45.13890000     -28.82600000     -71.22950000
S      -47.95750000     -29.92170000     -72.53900000
H      -48.83540000     -32.12850000     -73.17660000
