40
Properties=species:S:1:pos:R:3 #=T CELL(abcABC):=T 1.889726e+02=T 90.00000=T Traj:=T positionsangstrom=T Step:=T 0=T Bead:=T pbc="F F F"
C      -44.44080000     -36.59120000     -72.48220000
C      -45.34070000     -36.57380000     -71.34580000
C      -44.81330000     -36.16260000     -70.15670000
C      -43.48780000     -35.86750000     -69.93960000
C      -42.62760000     -35.86320000     -71.02700000
C      -43.10360000     -36.26560000     -72.30350000
H      -44.77850000     -37.04240000     -73.40120000
H      -45.52260000     -36.18780000     -69.26800000
H      -41.57220000     -35.69810000     -70.83850000
H      -42.36150000     -36.23250000     -73.10250000
C      -42.80540000     -35.42490000     -68.63990000
H      -42.01170000     -36.15070000     -68.40430000
H      -43.47580000     -35.43060000     -67.74200000
C      -46.75520000     -37.10860000     -71.37970000
H      -46.75530000     -38.13270000     -71.48410000
H      -47.39080000     -36.82480000     -70.47230000
S      -42.01960000     -33.78190000     -68.86040000
S      -47.77940000     -36.49930000     -72.85390000
C      -43.35570000     -32.59640000     -69.46620000
H      -44.21600000     -32.68740000     -68.81160000
H      -43.03390000     -31.56260000     -69.22400000
C      -48.03160000     -34.72940000     -72.41460000
H      -48.44700000     -34.54760000     -71.37090000
H      -48.68580000     -34.23670000     -73.16300000
C      -46.69640000     -33.85540000     -72.48910000
H      -46.00970000     -34.23060000     -71.70650000
H      -46.28050000     -33.98920000     -73.48700000
C      -43.63470000     -32.67520000     -71.00720000
H      -44.25310000     -33.50040000     -71.29570000
H      -42.84200000     -32.50840000     -71.69100000
C      -44.51580000     -31.43470000     -71.31840000
C      -44.07480000     -30.13320000     -70.96730000
C      -45.92530000     -31.44170000     -71.78080000
H      -43.11200000     -29.98730000     -70.56680000
C      -46.33070000     -30.11070000     -71.81280000
C      -46.94860000     -32.39530000     -72.27850000
C      -48.08100000     -31.69490000     -72.61460000
S      -45.25600000     -28.90590000     -71.24210000
S      -48.06280000     -29.93750000     -72.36480000
H      -49.01470000     -32.15760000     -72.86350000
