40
Properties=species:S:1:pos:R:3 #=T CELL(abcABC):=T 1.889726e+02=T 90.00000=T Traj:=T positionsangstrom=T Step:=T 0=T Bead:=T pbc="F F F"
C      -42.04270000     -32.26010000     -73.66660000
C      -43.27310000     -31.67510000     -73.62550000
C      -43.66360000     -30.99920000     -72.44760000
C      -42.86240000     -30.84170000     -71.33750000
C      -41.58770000     -31.43250000     -71.41520000
C      -41.20330000     -32.09360000     -72.60290000
H      -41.78860000     -32.89450000     -74.51860000
H      -44.64770000     -30.53620000     -72.37810000
H      -40.92450000     -31.41280000     -70.53830000
H      -40.24890000     -32.57260000     -72.61000000
C      -43.32270000     -30.03860000     -70.17310000
H      -44.19430000     -29.44270000     -70.57640000
H      -42.52430000     -29.32640000     -69.78290000
C      -44.21880000     -31.77210000     -74.70900000
H      -44.55520000     -30.75530000     -75.03620000
H      -43.74820000     -32.38450000     -75.54770000
S      -43.91740000     -30.79670000     -68.62700000
S      -45.75970000     -32.64230000     -74.30220000
C      -45.26570000     -31.83000000     -69.33710000
H      -46.09960000     -31.71890000     -68.69610000
H      -45.54260000     -31.43160000     -70.34220000
C      -45.16480000     -34.46340000     -74.05320000
H      -44.15160000     -34.38950000     -74.51370000
H      -45.79710000     -35.14540000     -74.59820000
C      -45.10830000     -34.88080000     -72.63930000
H      -44.40090000     -35.73560000     -72.56570000
H      -44.47550000     -34.19750000     -72.08960000
C      -44.85280000     -33.32830000     -69.50130000
H      -44.09380000     -33.70950000     -68.86600000
H      -44.40090000     -33.29810000     -70.49610000
C      -46.07430000     -34.22790000     -69.45790000
C      -46.86200000     -34.37540000     -68.31610000
C      -46.61270000     -35.05940000     -70.55380000
H      -46.67910000     -33.88970000     -67.33240000
C      -47.75680000     -35.75740000     -70.17380000
C      -46.33270000     -35.30440000     -71.93130000
C      -47.34460000     -36.02100000     -72.55160000
S      -48.04450000     -35.57140000     -68.48750000
S      -48.62300000     -36.56830000     -71.53110000
H      -47.24790000     -36.47670000     -73.50610000
