40
Properties=species:S:1:pos:R:3 #=T CELL(abcABC):=T 1.889726e+02=T 90.00000=T Traj:=T positionsangstrom=T Step:=T 0=T Bead:=T pbc="F F F"
C      -45.41560000     -37.82370000     -71.28180000
C      -45.15610000     -36.76180000     -72.19140000
C      -46.19760000     -35.95760000     -72.61540000
C      -47.54270000     -36.18770000     -72.08990000
C      -47.73310000     -37.18020000     -71.09540000
C      -46.67820000     -38.01880000     -70.66990000
H      -44.62980000     -38.54310000     -70.91400000
H      -45.98820000     -35.10120000     -73.28850000
H      -48.69380000     -37.28660000     -70.69730000
H      -46.78890000     -38.88410000     -70.00350000
C      -48.79410000     -35.44800000     -72.63030000
H      -49.61190000     -35.66570000     -71.90820000
H      -49.05210000     -35.80450000     -73.65980000
C      -43.76440000     -36.57210000     -72.73670000
H      -43.11980000     -36.71830000     -71.94230000
H      -43.51820000     -37.40660000     -73.43040000
S      -48.73060000     -33.57190000     -72.77530000
S      -43.41620000     -35.05250000     -73.62310000
C      -47.80850000     -32.96190000     -71.29900000
H      -48.56240000     -32.24370000     -70.76650000
H      -47.50890000     -33.71860000     -70.56260000
C      -43.33340000     -33.93640000     -72.20130000
H      -42.44650000     -34.17230000     -71.52660000
H      -44.22400000     -34.20510000     -71.59920000
C      -43.41650000     -32.44860000     -72.62370000
H      -42.62220000     -32.26820000     -73.38790000
H      -44.41120000     -32.22850000     -73.00400000
C      -46.58440000     -32.16500000     -71.76450000
H      -46.93690000     -31.47840000     -72.42600000
H      -45.86860000     -32.86160000     -72.23370000
C      -45.85340000     -31.40930000     -70.65800000
C      -46.46690000     -30.66170000     -69.64520000
C      -44.39770000     -31.18510000     -70.56570000
H      -47.53950000     -30.50370000     -69.51300000
C      -44.04010000     -30.43510000     -69.44760000
C      -43.24280000     -31.58120000     -71.33140000
C      -42.03070000     -31.21260000     -70.73860000
S      -45.41640000     -29.83540000     -68.49700000
S      -42.34840000     -30.29660000     -69.21010000
H      -41.02220000     -31.54620000     -70.94240000
