40
Properties=species:S:1:pos:R:3 #=T CELL(abcABC):=T 1.889726e+02=T 90.00000=T Traj:=T positionsangstrom=T Step:=T 0=T Bead:=T pbc="F F F"
C      -42.97360000     -35.85990000     -73.36530000
C      -43.17750000     -35.70560000     -71.99180000
C      -44.32880000     -36.24600000     -71.41150000
C      -45.28740000     -36.89020000     -72.20230000
C      -45.07760000     -37.07570000     -73.57280000
C      -43.92870000     -36.54860000     -74.17680000
H      -42.22720000     -35.24200000     -73.85460000
H      -44.38570000     -36.38330000     -70.32030000
H      -45.79260000     -37.51020000     -74.34500000
H      -43.78320000     -36.75420000     -75.27070000
C      -46.49910000     -37.51730000     -71.53190000
H      -46.23900000     -38.52220000     -71.09540000
H      -47.26980000     -37.73180000     -72.23190000
C      -42.14990000     -34.92530000     -71.23250000
H      -41.97140000     -35.43280000     -70.32700000
H      -41.22570000     -34.88360000     -71.70970000
S      -47.21090000     -36.61360000     -70.12550000
S      -42.77960000     -33.22280000     -70.67530000
C      -47.45950000     -34.84030000     -70.53460000
H      -47.66380000     -34.66660000     -71.62020000
H      -48.36310000     -34.61380000     -69.93020000
C      -42.81060000     -32.51530000     -72.37020000
H      -42.20660000     -33.08400000     -73.04870000
H      -42.42790000     -31.48870000     -72.35630000
C      -44.33010000     -32.52030000     -72.87280000
H      -44.36620000     -32.37460000     -73.96390000
H      -44.70910000     -33.53590000     -72.71750000
C      -46.29960000     -33.87320000     -70.13760000
H      -45.51250000     -34.21290000     -70.93320000
H      -45.94580000     -34.20530000     -69.14230000
C      -46.57080000     -32.40340000     -70.05800000
C      -47.25380000     -31.80850000     -69.06250000
C      -45.97380000     -31.37250000     -70.98360000
H      -47.90840000     -32.36500000     -68.40500000
C      -46.46000000     -30.13320000     -70.67830000
C      -45.07210000     -31.34210000     -72.15070000
C      -44.97660000     -30.13680000     -72.74060000
S      -47.42820000     -30.04140000     -69.22180000
S      -45.92910000     -28.89870000     -71.92770000
H      -44.48890000     -29.76230000     -73.70240000
