40
Properties=species:S:1:pos:R:3 #=T CELL(abcABC):=T 1.889726e+02=T 90.00000=T Traj:=T positionsangstrom=T Step:=T 0=T Bead:=T pbc="F F F"
C      -44.66500000     -37.17990000     -72.58290000
C      -45.26420000     -37.05070000     -71.31130000
C      -44.56580000     -36.48560000     -70.23910000
C      -43.31600000     -35.96050000     -70.40500000
C      -42.74810000     -36.09740000     -71.65240000
C      -43.37620000     -36.74020000     -72.68510000
H      -45.28660000     -37.48860000     -73.42110000
H      -45.07650000     -36.35720000     -69.27580000
H      -41.84140000     -35.57920000     -71.82470000
H      -43.03230000     -36.81430000     -73.68760000
C      -42.65990000     -35.21420000     -69.21300000
H      -41.87020000     -35.86360000     -68.87080000
H      -43.30090000     -35.02600000     -68.34250000
C      -46.72740000     -37.37220000     -71.06710000
H      -46.85230000     -38.43590000     -71.40730000
H      -46.87860000     -37.47880000     -69.95740000
S      -41.76770000     -33.68480000     -69.60910000
S      -48.03220000     -36.38540000     -71.79770000
C      -43.11080000     -32.45290000     -69.86780000
H      -43.91130000     -32.81100000     -69.23110000
H      -42.67180000     -31.49400000     -69.56720000
C      -47.84690000     -34.62870000     -71.14060000
H      -47.70320000     -34.70760000     -70.07830000
H      -48.81100000     -34.22690000     -71.29480000
C      -46.70090000     -33.86650000     -71.77720000
H      -45.97290000     -34.18670000     -71.00400000
H      -46.43940000     -34.34960000     -72.71760000
C      -43.53000000     -32.37110000     -71.28920000
H      -44.12360000     -33.23600000     -71.68580000
H      -42.60470000     -32.36190000     -71.86380000
C      -44.42880000     -31.14770000     -71.53120000
C      -44.04150000     -29.81790000     -71.51190000
C      -45.89910000     -31.25260000     -71.81730000
H      -43.08440000     -29.38450000     -71.31130000
C      -46.49880000     -29.97950000     -71.91260000
C      -46.92140000     -32.29560000     -71.93870000
C      -48.18740000     -31.81630000     -72.22430000
S      -45.35600000     -28.64170000     -71.58690000
S      -48.18080000     -30.07820000     -72.08320000
H      -49.07130000     -32.35160000     -72.27010000
