40
Properties=species:S:1:pos:R:3 #=T CELL(abcABC):=T 1.889726e+02=T 90.00000=T Traj:=T positionsangstrom=T Step:=T 0=T Bead:=T pbc="F F F"
C      -44.78570000     -37.06450000     -72.50860000
C      -45.38460000     -36.81050000     -71.23140000
C      -44.59540000     -36.18510000     -70.26840000
C      -43.24820000     -35.85450000     -70.49380000
C      -42.73220000     -36.11790000     -71.75870000
C      -43.48410000     -36.56790000     -72.81590000
H      -45.27380000     -37.59670000     -73.31030000
H      -45.02620000     -36.09720000     -69.26330000
H      -41.62650000     -36.01490000     -71.85020000
H      -42.97070000     -36.90960000     -73.78620000
C      -42.40960000     -35.34140000     -69.35920000
H      -41.54350000     -35.96070000     -69.14050000
H      -43.10460000     -35.25350000     -68.42090000
C      -46.68110000     -37.45140000     -70.98000000
H      -46.69450000     -38.46470000     -71.45900000
H      -46.85090000     -37.50190000     -69.92950000
S      -41.59070000     -33.68380000     -69.79210000
S      -48.10200000     -36.38960000     -71.64400000
C      -43.06240000     -32.57160000     -70.04890000
H      -43.81920000     -33.02200000     -69.40440000
H      -42.93440000     -31.60600000     -69.53590000
C      -47.75660000     -34.68170000     -70.97520000
H      -47.69370000     -34.60150000     -69.85880000
H      -48.69820000     -34.14190000     -71.30030000
C      -46.61510000     -33.83210000     -71.56470000
H      -45.68100000     -33.88560000     -70.92720000
H      -46.31410000     -34.11200000     -72.60790000
C      -43.44930000     -32.31510000     -71.47870000
H      -43.69310000     -33.27880000     -72.01150000
H      -42.54960000     -32.08710000     -72.09810000
C      -44.44990000     -31.22720000     -71.53560000
C      -44.09740000     -29.92460000     -71.47780000
C      -45.98640000     -31.31520000     -71.62470000
H      -43.06850000     -29.68990000     -71.44530000
C      -46.59290000     -30.00640000     -71.74550000
C      -47.00840000     -32.33520000     -71.71040000
C      -48.28280000     -31.87010000     -71.88600000
S      -45.36150000     -28.67630000     -71.72260000
S      -48.29020000     -30.12160000     -72.16040000
H      -49.14370000     -32.41330000     -72.13390000
