40
Properties=species:S:1:pos:R:3 #=T CELL(abcABC):=T 1.889726e+02=T 90.00000=T Traj:=T positionsangstrom=T Step:=T 0=T Bead:=T pbc="F F F"
C      -47.03320000     -35.25360000     -68.14110000
C      -46.18770000     -35.21600000     -69.25740000
C      -46.58680000     -34.42910000     -70.38680000
C      -47.75310000     -33.70210000     -70.33750000
C      -48.56330000     -33.73970000     -69.20500000
C      -48.24190000     -34.55590000     -68.12640000
H      -46.74300000     -36.01800000     -67.35920000
H      -45.94030000     -34.46920000     -71.23610000
H      -49.52550000     -33.28970000     -69.22860000
H      -48.78320000     -34.59940000     -67.13980000
C      -48.12890000     -32.84260000     -71.49500000
H      -49.26440000     -32.75780000     -71.63370000
H      -47.76220000     -33.25130000     -72.42990000
C      -44.89040000     -35.94160000     -69.40430000
H      -45.01510000     -37.02030000     -69.03370000
H      -44.67770000     -35.94710000     -70.49880000
S      -47.68190000     -31.08390000     -71.38690000
S      -43.64770000     -35.08190000     -68.34170000
C      -46.18530000     -31.00190000     -70.44040000
H      -46.26160000     -30.21030000     -69.66700000
H      -45.88150000     -31.98800000     -70.07450000
C      -42.46570000     -34.19290000     -69.46390000
H      -41.86970000     -34.92250000     -70.08100000
H      -41.72160000     -33.64570000     -68.83490000
C      -43.09620000     -33.10070000     -70.38780000
H      -44.00420000     -32.70850000     -70.00250000
H      -42.46870000     -32.20730000     -70.43540000
C      -44.96890000     -30.63290000     -71.32740000
H      -44.05790000     -30.76700000     -70.71770000
H      -45.03320000     -29.62960000     -71.69330000
C      -44.86730000     -31.52390000     -72.51600000
C      -45.53890000     -31.22690000     -73.67530000
C      -44.26500000     -32.89080000     -72.61420000
H      -46.14030000     -30.30790000     -73.71630000
C      -44.26090000     -33.30590000     -73.89790000
C      -43.30830000     -33.60950000     -71.80600000
C      -42.82790000     -34.70240000     -72.50650000
S      -45.17920000     -32.32950000     -74.97920000
S      -43.29830000     -34.70760000     -74.17830000
H      -42.21510000     -35.53580000     -72.21170000
