40
Properties=species:S:1:pos:R:3 #=T CELL(abcABC):=T 1.889726e+02=T 90.00000=T Traj:=T positionsangstrom=T Step:=T 0=T Bead:=T pbc="F F F"
C      -44.55700000     -36.83580000     -72.46860000
C      -45.33440000     -36.82060000     -71.32480000
C      -44.71610000     -36.33480000     -70.16580000
C      -43.45280000     -35.78780000     -70.08360000
C      -42.66770000     -35.81520000     -71.23580000
C      -43.19250000     -36.29140000     -72.43620000
H      -45.10290000     -37.02650000     -73.34820000
H      -45.31220000     -36.33650000     -69.24520000
H      -41.70820000     -35.29240000     -71.21990000
H      -42.56990000     -36.23990000     -73.42180000
C      -42.98460000     -35.20680000     -68.77340000
H      -42.41280000     -35.85410000     -68.15270000
H      -43.90260000     -34.94380000     -68.18820000
C      -46.81190000     -37.25990000     -71.33080000
H      -46.82260000     -38.32370000     -71.59020000
H      -47.12300000     -37.15010000     -70.29730000
S      -41.95120000     -33.66080000     -68.95200000
S      -47.78360000     -36.43370000     -72.54830000
C      -43.21260000     -32.46600000     -69.55150000
H      -44.13150000     -32.65010000     -68.99730000
H      -42.62280000     -31.55830000     -69.44080000
C      -47.90120000     -34.63510000     -72.12270000
H      -48.19100000     -34.55530000     -71.07640000
H      -48.75020000     -34.44790000     -72.73890000
C      -46.63920000     -33.82520000     -72.45420000
H      -45.73840000     -34.09830000     -71.91440000
H      -46.37150000     -33.98510000     -73.49760000
C      -43.68250000     -32.62400000     -71.11910000
H      -44.20950000     -33.55650000     -71.17390000
H      -42.74180000     -32.72350000     -71.63510000
C      -44.51090000     -31.41970000     -71.45860000
C      -44.05210000     -30.12150000     -71.11690000
C      -45.85160000     -31.36080000     -71.87710000
H      -43.07660000     -29.84570000     -70.72570000
C      -46.40450000     -30.08930000     -71.78940000
C      -46.88300000     -32.36920000     -72.21680000
C      -48.09450000     -31.79140000     -72.50820000
S      -45.28050000     -28.92830000     -71.34880000
S      -48.10780000     -30.06310000     -72.22140000
H      -49.04250000     -32.20020000     -72.93990000
