40
Properties=species:S:1:pos:R:3 #=T CELL(abcABC):=T 1.889726e+02=T 90.00000=T Traj:=T positionsangstrom=T Step:=T 0=T Bead:=T pbc="F F F"
C      -46.63390000     -35.26470000     -68.07730000
C      -45.94430000     -35.19930000     -69.31350000
C      -46.56140000     -34.47270000     -70.36960000
C      -47.75320000     -33.83920000     -70.23690000
C      -48.42190000     -34.00680000     -69.00970000
C      -47.94040000     -34.72600000     -67.95420000
H      -46.26270000     -35.93850000     -67.34240000
H      -46.05300000     -34.48790000     -71.36270000
H      -49.39380000     -33.47410000     -68.96670000
H      -48.35720000     -34.68440000     -66.94010000
C      -48.24630000     -32.95550000     -71.31400000
H      -49.36920000     -33.06140000     -71.53100000
H      -47.85380000     -33.19510000     -72.31640000
C      -44.58730000     -35.90140000     -69.43040000
H      -44.78430000     -37.02850000     -69.15340000
H      -44.23850000     -35.86330000     -70.46460000
S      -48.01790000     -31.09910000     -71.05950000
S      -43.21480000     -35.09890000     -68.37010000
C      -46.33620000     -30.82810000     -70.47250000
H      -46.37980000     -30.03420000     -69.83930000
H      -45.97910000     -31.77550000     -69.95210000
C      -42.41380000     -33.89300000     -69.57800000
H      -41.59300000     -34.34250000     -70.11370000
H      -41.83750000     -33.15320000     -68.92240000
C      -43.36790000     -33.07370000     -70.38400000
H      -44.25960000     -32.90340000     -69.78910000
H      -43.04820000     -32.02530000     -70.39670000
C      -45.24050000     -30.49460000     -71.53590000
H      -44.25090000     -30.37570000     -71.11760000
H      -45.59940000     -29.57970000     -71.94680000
C      -45.04580000     -31.50580000     -72.69820000
C      -45.28110000     -31.03260000     -73.98790000
C      -44.41360000     -32.80610000     -72.70560000
H      -45.85480000     -30.15210000     -74.30270000
C      -44.39840000     -33.35410000     -74.05680000
C      -43.64800000     -33.59100000     -71.77980000
C      -43.06830000     -34.70570000     -72.39560000
S      -44.98550000     -32.27870000     -75.27210000
S      -43.53230000     -34.86290000     -74.05510000
H      -42.47160000     -35.44670000     -71.94070000
