40
Properties=species:S:1:pos:R:3 #=T CELL(abcABC):=T 1.889726e+02=T 90.00000=T Traj:=T positionsangstrom=T Step:=T 0=T Bead:=T pbc="F F F"
C      -44.82240000     -36.80470000     -72.19300000
C      -44.98280000     -36.65730000     -70.79460000
C      -43.99740000     -36.04660000     -70.02150000
C      -42.73850000     -35.65390000     -70.60400000
C      -42.57310000     -35.84530000     -72.00720000
C      -43.58070000     -36.46360000     -72.72270000
H      -45.64300000     -37.09130000     -72.88460000
H      -44.16100000     -35.90180000     -68.96610000
H      -41.60860000     -35.62400000     -72.40910000
H      -43.42680000     -36.78800000     -73.76780000
C      -41.70460000     -34.87630000     -69.67870000
H      -40.72890000     -35.31150000     -69.67230000
H      -42.09370000     -34.98650000     -68.67800000
C      -46.26090000     -37.00430000     -70.12350000
H      -46.33540000     -38.10390000     -69.88300000
H      -46.30260000     -36.41960000     -69.20460000
S      -41.50600000     -33.14910000     -70.29400000
S      -47.84880000     -36.51280000     -70.98800000
C      -43.28750000     -32.61980000     -70.52910000
H      -43.91960000     -33.18680000     -69.92430000
H      -43.44440000     -31.58640000     -70.10280000
C      -48.00280000     -34.74790000     -70.61160000
H      -48.35410000     -34.60930000     -69.63330000
H      -48.72640000     -34.37300000     -71.26750000
C      -46.75370000     -33.81650000     -70.93110000
H      -46.03530000     -33.81810000     -70.06470000
H      -46.15780000     -34.15470000     -71.72650000
C      -43.81390000     -32.65350000     -71.96480000
H      -44.16990000     -33.71100000     -72.22140000
H      -42.95190000     -32.39900000     -72.61890000
C      -44.80990000     -31.54530000     -72.16410000
C      -44.42770000     -30.37680000     -72.74200000
C      -46.21310000     -31.54530000     -71.82390000
H      -43.53820000     -30.22480000     -73.29170000
C      -46.74900000     -30.27540000     -72.04310000
C      -47.16110000     -32.44730000     -71.18430000
C      -48.38160000     -31.88310000     -70.93440000
S      -45.63950000     -29.13590000     -72.68810000
S      -48.47800000     -30.21660000     -71.54410000
H      -49.32600000     -32.28500000     -70.60510000
