40
Properties=species:S:1:pos:R:3 #=T CELL(abcABC):=T 1.889726e+02=T 90.00000=T Traj:=T positionsangstrom=T Step:=T 0=T Bead:=T pbc="F F F"
C      -43.75490000     -37.08490000     -72.39990000
C      -43.89560000     -35.92390000     -73.18070000
C      -45.17210000     -35.47160000     -73.56270000
C      -46.30300000     -36.13620000     -73.04140000
C      -46.16760000     -37.27370000     -72.24970000
C      -44.84680000     -37.67490000     -71.80810000
H      -42.70960000     -37.25060000     -72.02090000
H      -45.34600000     -34.65610000     -74.25690000
H      -47.06270000     -37.61440000     -71.74950000
H      -44.71960000     -38.38800000     -71.00770000
C      -47.64220000     -35.61890000     -73.47030000
H      -48.25150000     -36.45010000     -73.82600000
H      -47.60390000     -35.03120000     -74.37870000
C      -42.70180000     -35.08420000     -73.75730000
H      -41.92530000     -35.63470000     -74.34920000
H      -43.05470000     -34.38650000     -74.48810000
S      -48.86270000     -34.98840000     -72.26200000
S      -41.67990000     -34.04840000     -72.61300000
C      -47.86860000     -33.55700000     -71.69880000
H      -47.49070000     -33.03710000     -72.54730000
H      -48.63540000     -32.84580000     -71.33830000
C      -42.87480000     -33.43430000     -71.44240000
H      -42.37680000     -32.99550000     -70.61710000
H      -43.32600000     -34.31180000     -71.01700000
C      -43.81000000     -32.38070000     -72.15340000
H      -43.42440000     -31.89490000     -73.03390000
H      -44.75470000     -32.81440000     -72.58660000
C      -46.71850000     -33.77480000     -70.74060000
H      -45.93670000     -34.07270000     -71.33530000
H      -46.99550000     -34.45300000     -69.95000000
C      -46.40560000     -32.46770000     -69.93520000
C      -47.30320000     -32.13680000     -68.95410000
C      -45.39570000     -31.50530000     -70.10010000
H      -48.19590000     -32.74730000     -68.77260000
C      -45.54500000     -30.46900000     -69.24000000
C      -44.26150000     -31.36430000     -71.10560000
C      -43.49940000     -30.27540000     -70.68960000
S      -46.92880000     -30.63260000     -68.08940000
S      -44.30090000     -29.27070000     -69.45150000
H      -42.65620000     -29.93980000     -71.27890000
