40
Properties=species:S:1:pos:R:3 #=T CELL(abcABC):=T 1.889726e+02=T 90.00000=T Traj:=T positionsangstrom=T Step:=T 0=T Bead:=T pbc="F F F"
C      -46.95900000     -35.14790000     -68.11470000
C      -46.22020000     -35.33170000     -69.31120000
C      -46.67810000     -34.74320000     -70.46060000
C      -47.79990000     -33.87600000     -70.39360000
C      -48.48870000     -33.71240000     -69.24000000
C      -48.09270000     -34.36570000     -68.07360000
H      -46.53240000     -35.62030000     -67.20990000
H      -46.04920000     -34.89370000     -71.29370000
H      -49.20540000     -32.88190000     -69.11380000
H      -48.58800000     -34.27180000     -67.07120000
C      -48.13530000     -32.99880000     -71.59570000
H      -49.16910000     -33.17660000     -71.91750000
H      -47.43520000     -33.23180000     -72.42060000
C      -44.87160000     -36.00330000     -69.34520000
H      -44.93050000     -36.97210000     -68.89750000
H      -44.42330000     -36.18960000     -70.34220000
S      -47.90930000     -31.23600000     -71.08610000
S      -43.62850000     -35.08520000     -68.32110000
C      -46.03470000     -31.13940000     -70.57230000
H      -45.97490000     -30.49300000     -69.67330000
H      -45.73280000     -32.07160000     -70.21980000
C      -42.48190000     -34.18200000     -69.42750000
H      -41.93150000     -34.85440000     -70.08680000
H      -41.85810000     -33.80210000     -68.70880000
C      -43.03590000     -32.99320000     -70.32090000
H      -43.97690000     -32.52910000     -69.90920000
H      -42.25360000     -32.22630000     -70.24170000
C      -45.04780000     -30.55540000     -71.55010000
H      -44.11780000     -30.55490000     -70.92580000
H      -45.19830000     -29.49930000     -71.79040000
C      -44.86940000     -31.37180000     -72.71970000
C      -45.46050000     -31.07470000     -73.93340000
C      -44.18900000     -32.67230000     -72.71440000
H      -45.72580000     -30.07620000     -74.21130000
C      -44.28050000     -33.29060000     -73.92110000
C      -43.32420000     -33.37520000     -71.77560000
C      -42.78900000     -34.54850000     -72.27360000
S      -45.15600000     -32.32790000     -75.17160000
S      -43.33490000     -34.75810000     -74.03110000
H      -42.11390000     -35.22620000     -71.75760000
