40
Properties=species:S:1:pos:R:3 #=T CELL(abcABC):=T 1.889726e+02=T 90.00000=T Traj:=T positionsangstrom=T Step:=T 0=T Bead:=T pbc="F F F"
C      -43.69380000     -37.01900000     -72.50940000
C      -43.92930000     -35.98850000     -73.41890000
C      -45.23680000     -35.48830000     -73.59190000
C      -46.29970000     -36.18960000     -73.00460000
C      -46.04960000     -37.25540000     -72.07010000
C      -44.73710000     -37.67090000     -71.81300000
H      -42.73200000     -37.53260000     -72.52770000
H      -45.34930000     -34.58220000     -74.08250000
H      -46.94030000     -37.78120000     -71.74670000
H      -44.66780000     -38.46400000     -71.07790000
C      -47.64720000     -35.87360000     -73.38860000
H      -48.09620000     -36.85630000     -73.56740000
H      -47.52140000     -35.30710000     -74.34590000
C      -42.76900000     -35.31630000     -74.03230000
H      -41.94100000     -35.99830000     -74.30470000
H      -43.04300000     -34.61600000     -74.82980000
S      -48.78420000     -34.99110000     -72.13660000
S      -41.88000000     -34.29280000     -72.68040000
C      -47.78330000     -33.40420000     -71.80660000
H      -47.37120000     -32.92800000     -72.70980000
H      -48.57250000     -32.70970000     -71.37500000
C      -43.11980000     -33.59780000     -71.54060000
H      -42.54310000     -33.25040000     -70.64990000
H      -43.81560000     -34.42190000     -71.23710000
C      -43.79310000     -32.32540000     -72.14470000
H      -43.03420000     -31.93560000     -72.80500000
H      -44.69550000     -32.59450000     -72.72900000
C      -46.70730000     -33.64000000     -70.76550000
H      -45.80960000     -34.08950000     -71.31320000
H      -47.16340000     -34.40470000     -70.03030000
C      -46.44200000     -32.38700000     -69.89810000
C      -47.29190000     -31.95630000     -68.85450000
C      -45.38350000     -31.44420000     -70.12450000
H      -48.16690000     -32.47200000     -68.53430000
C      -45.56020000     -30.39580000     -69.21490000
C      -44.21170000     -31.31510000     -71.03940000
C      -43.49370000     -30.16980000     -70.70230000
S      -46.88300000     -30.41430000     -68.07860000
S      -44.24900000     -29.27120000     -69.36430000
H      -42.45170000     -29.98790000     -71.00530000
