40
Properties=species:S:1:pos:R:3 #=T CELL(abcABC):=T 1.889726e+02=T 90.00000=T Traj:=T positionsangstrom=T Step:=T 0=T Bead:=T pbc="F F F"
C      -49.24480000     -31.68220000     -70.43460000
C      -48.93020000     -32.92630000     -71.04120000
C      -48.25900000     -33.83840000     -70.24280000
C      -47.98260000     -33.59690000     -68.87180000
C      -48.37970000     -32.42490000     -68.27720000
C      -48.98700000     -31.45770000     -69.09730000
H      -49.65350000     -30.84160000     -71.06470000
H      -47.83250000     -34.76690000     -70.63800000
H      -48.17690000     -32.08190000     -67.28380000
H      -49.24340000     -30.55170000     -68.54870000
C      -47.21090000     -34.59250000     -67.95940000
H      -47.64160000     -35.57080000     -68.06450000
H      -47.35400000     -34.28510000     -66.87750000
C      -49.21430000     -33.10370000     -72.56860000
H      -49.07220000     -34.15860000     -72.77080000
H      -50.22150000     -32.87570000     -72.80820000
S      -45.35710000     -34.71240000     -68.42040000
S      -48.00570000     -32.17550000     -73.59170000
C      -44.79450000     -32.88970000     -68.75850000
H      -45.60170000     -32.27490000     -68.31190000
H      -43.87960000     -32.74260000     -68.24190000
C      -46.57010000     -33.28430000     -73.39720000
H      -46.45810000     -34.08500000     -74.16330000
H      -46.77020000     -33.83970000     -72.43300000
C      -45.22550000     -32.45950000     -73.41310000
H      -45.30510000     -31.73850000     -74.24850000
H      -45.26980000     -31.93440000     -72.44970000
C      -44.53900000     -32.66040000     -70.22170000
H      -44.42390000     -31.62100000     -70.42030000
H      -45.42230000     -32.94410000     -70.78500000
C      -43.34230000     -33.35850000     -70.84550000
C      -42.16500000     -33.49790000     -70.15740000
C      -43.19210000     -33.51110000     -72.25550000
H      -41.91880000     -33.31520000     -69.15450000
C      -41.96800000     -34.07870000     -72.59020000
C      -43.97510000     -33.24070000     -73.52010000
C      -43.29240000     -33.61350000     -74.62780000
S      -41.00140000     -34.28170000     -71.15240000
S      -41.76400000     -34.34470000     -74.24120000
H      -43.60420000     -33.45840000     -75.60620000
