40
Properties=species:S:1:pos:R:3 #=T CELL(abcABC):=T 1.889726e+02=T 90.00000=T Traj:=T positionsangstrom=T Step:=T 0=T Bead:=T pbc="F F F"
C      -43.34240000     -36.63190000     -72.50740000
C      -43.60250000     -35.42650000     -73.20090000
C      -44.90730000     -35.15590000     -73.75030000
C      -45.87620000     -36.05950000     -73.59650000
C      -45.62580000     -37.26370000     -72.89390000
C      -44.40180000     -37.55360000     -72.29730000
H      -42.32380000     -36.88700000     -72.16420000
H      -44.95820000     -34.22500000     -74.31160000
H      -46.44380000     -37.96050000     -72.88630000
H      -44.27930000     -38.54480000     -71.81820000
C      -47.24850000     -35.68080000     -74.15920000
H      -47.60420000     -36.51620000     -74.76740000
H      -47.17940000     -34.86550000     -74.87920000
C      -42.41130000     -34.49790000     -73.49020000
H      -41.74210000     -35.02420000     -74.17360000
H      -42.76740000     -33.58770000     -74.08170000
S      -48.44850000     -35.26130000     -72.89050000
S      -41.51800000     -34.00850000     -71.92020000
C      -47.89450000     -33.65170000     -72.21490000
H      -47.39450000     -33.03650000     -73.00480000
H      -48.82940000     -33.14690000     -71.91010000
C      -42.89330000     -33.35830000     -70.77720000
H      -42.33560000     -32.87940000     -70.05270000
H      -43.41130000     -34.21680000     -70.38410000
C      -43.74800000     -32.34650000     -71.59120000
H      -43.16280000     -31.84240000     -72.30560000
H      -44.54440000     -32.94260000     -72.11560000
C      -46.89670000     -33.80550000     -70.89460000
H      -45.87180000     -34.19330000     -71.21950000
H      -47.34080000     -34.60800000     -70.31390000
C      -46.83570000     -32.53840000     -70.16440000
C      -47.80130000     -32.23510000     -69.29100000
C      -45.76610000     -31.51810000     -70.09910000
H      -48.73110000     -32.73380000     -69.02260000
C      -46.03110000     -30.61480000     -69.06110000
C      -44.42090000     -31.35820000     -70.69550000
C      -43.75700000     -30.32820000     -70.06850000
S      -47.50230000     -30.78330000     -68.24470000
S      -44.65700000     -29.52660000     -68.86650000
H      -42.71660000     -30.14120000     -70.28570000
