40
Properties=species:S:1:pos:R:3 #=T CELL(abcABC):=T 1.889726e+02=T 90.00000=T Traj:=T positionsangstrom=T Step:=T 0=T Bead:=T pbc="F F F"
C      -43.24460000     -36.82230000     -72.72080000
C      -43.42900000     -35.59290000     -73.36030000
C      -44.65620000     -35.27620000     -73.87180000
C      -45.85360000     -36.01540000     -73.61120000
C      -45.66570000     -37.16860000     -72.89530000
C      -44.39070000     -37.54210000     -72.39990000
H      -42.25570000     -36.99600000     -72.24750000
H      -44.77750000     -34.33720000     -74.49370000
H      -46.47690000     -37.80830000     -72.49170000
H      -44.07440000     -38.52350000     -71.86990000
C      -47.17490000     -35.56560000     -74.18220000
H      -47.62900000     -36.35280000     -74.77070000
H      -47.04330000     -34.64710000     -74.78410000
C      -42.32570000     -34.61600000     -73.52850000
H      -41.58260000     -34.95090000     -74.22290000
H      -42.67130000     -33.71200000     -74.00090000
S      -48.43510000     -35.20080000     -72.86640000
S      -41.40980000     -34.04360000     -72.00610000
C      -48.02940000     -33.49180000     -72.14890000
H      -47.76040000     -32.81030000     -72.93490000
H      -48.89030000     -33.03970000     -71.63830000
C      -42.78460000     -33.34710000     -70.89450000
H      -42.21360000     -32.77790000     -70.07680000
H      -43.27920000     -34.11740000     -70.33500000
C      -43.82810000     -32.38740000     -71.48320000
H      -43.30760000     -31.69280000     -72.21640000
H      -44.64930000     -32.88960000     -72.02010000
C      -46.99020000     -33.76850000     -70.99250000
H      -45.90980000     -34.02540000     -71.24680000
H      -47.25360000     -34.61320000     -70.39800000
C      -46.89080000     -32.57800000     -70.01550000
C      -47.96700000     -32.18790000     -69.26410000
C      -45.73840000     -31.69090000     -69.86990000
H      -48.97000000     -32.52990000     -69.13880000
C      -46.07750000     -30.65120000     -68.94150000
C      -44.43940000     -31.55060000     -70.42010000
C      -43.76410000     -30.36850000     -70.02540000
S      -47.63360000     -30.67460000     -68.27570000
S      -44.73320000     -29.47720000     -68.84340000
H      -42.66620000     -30.25640000     -70.11330000
