40
Properties=species:S:1:pos:R:3 #=T CELL(abcABC):=T 1.889726e+02=T 90.00000=T Traj:=T positionsangstrom=T Step:=T 0=T Bead:=T pbc="F F F"
C      -43.51920000     -36.92040000     -72.38430000
C      -43.56510000     -35.76620000     -73.16850000
C      -44.78760000     -35.28720000     -73.62810000
C      -45.91980000     -35.97540000     -73.33510000
C      -45.88640000     -37.18220000     -72.63390000
C      -44.68710000     -37.61470000     -72.08410000
H      -42.49350000     -37.34350000     -72.18330000
H      -44.75250000     -34.44550000     -74.37660000
H      -46.81630000     -37.74070000     -72.54440000
H      -44.70780000     -38.60730000     -71.63110000
C      -47.20720000     -35.54710000     -74.02380000
H      -47.59210000     -36.44930000     -74.43960000
H      -47.02080000     -34.90590000     -74.84160000
C      -42.24970000     -35.03390000     -73.51110000
H      -41.53670000     -35.76750000     -73.74510000
H      -42.39420000     -34.46240000     -74.41020000
S      -48.39710000     -34.78320000     -72.79990000
S      -41.52900000     -33.93160000     -72.20620000
C      -47.27700000     -33.58510000     -72.03080000
H      -46.42740000     -33.27310000     -72.72050000
H      -47.82520000     -32.65110000     -71.94580000
C      -43.04120000     -33.42560000     -71.16130000
H      -42.77760000     -33.02050000     -70.19490000
H      -43.67270000     -34.31810000     -70.97800000
C      -43.72430000     -32.19860000     -71.85210000
H      -43.07930000     -31.61640000     -72.44930000
H      -44.40680000     -32.52480000     -72.57180000
C      -46.67830000     -34.00570000     -70.68900000
H      -45.72510000     -34.53500000     -70.93750000
H      -47.38630000     -34.68720000     -70.27080000
C      -46.57990000     -32.85200000     -69.75840000
C      -47.42280000     -32.61490000     -68.72980000
C      -45.66000000     -31.72870000     -69.94610000
H      -48.10470000     -33.29640000     -68.34980000
C      -46.06110000     -30.60190000     -69.18210000
C      -44.54630000     -31.36700000     -70.81290000
C      -44.17710000     -30.03570000     -70.55900000
S      -47.32810000     -30.96630000     -68.05050000
S      -45.09610000     -29.19880000     -69.33890000
H      -43.37720000     -29.50220000     -71.08800000
