40
Properties=species:S:1:pos:R:3 #=T CELL(abcABC):=T 1.889726e+02=T 90.00000=T Traj:=T positionsangstrom=T Step:=T 0=T Bead:=T pbc="F F F"
C      -43.53830000     -36.78500000     -72.37990000
C      -43.60040000     -35.73080000     -73.27630000
C      -44.80940000     -35.32500000     -73.78930000
C      -45.97040000     -35.98270000     -73.39650000
C      -45.97030000     -37.06200000     -72.46880000
C      -44.68940000     -37.40390000     -71.92870000
H      -42.63650000     -37.03150000     -71.90790000
H      -44.90370000     -34.55840000     -74.51250000
H      -46.90830000     -37.50040000     -72.12260000
H      -44.64960000     -38.07270000     -71.07030000
C      -47.34440000     -35.52950000     -73.90340000
H      -47.76020000     -36.33720000     -74.58020000
H      -47.13640000     -34.63740000     -74.57170000
C      -42.41910000     -34.88770000     -73.51330000
H      -41.59730000     -35.48100000     -73.91300000
H      -42.56640000     -34.03960000     -74.26730000
S      -48.65340000     -35.07160000     -72.59740000
S      -41.65770000     -34.16230000     -71.95990000
C      -47.77920000     -33.57230000     -71.95810000
H      -47.20290000     -33.10080000     -72.79540000
H      -48.55850000     -32.78230000     -71.67120000
C      -43.11210000     -33.38020000     -71.15100000
H      -42.76910000     -32.85690000     -70.21200000
H      -43.81040000     -34.15860000     -70.82110000
C      -43.87100000     -32.26470000     -72.01560000
H      -43.13840000     -31.73830000     -72.59610000
H      -44.59280000     -32.78420000     -72.69560000
C      -46.83630000     -33.97130000     -70.71130000
H      -45.89040000     -34.29550000     -71.11700000
H      -47.18070000     -34.67340000     -70.03830000
C      -46.53120000     -32.71180000     -69.91130000
C      -47.43130000     -32.37530000     -68.88850000
C      -45.53400000     -31.69580000     -70.08820000
H      -48.09840000     -33.13710000     -68.39660000
C      -45.74490000     -30.65380000     -69.16980000
C      -44.49680000     -31.34010000     -71.01110000
C      -43.95240000     -30.07690000     -70.83120000
S      -46.97710000     -30.89770000     -68.05460000
S      -44.74640000     -29.19030000     -69.47740000
H      -43.10730000     -29.73950000     -71.38420000
