40
Properties=species:S:1:pos:R:3 #=T CELL(abcABC):=T 1.889726e+02=T 90.00000=T Traj:=T positionsangstrom=T Step:=T 0=T Bead:=T pbc="F F F"
C      -46.32860000     -35.80270000     -68.21380000
C      -45.66420000     -35.44780000     -69.39760000
C      -46.35650000     -34.69270000     -70.36010000
C      -47.70740000     -34.35980000     -70.18040000
C      -48.33080000     -34.67670000     -68.95760000
C      -47.64210000     -35.47400000     -67.99140000
H      -45.82970000     -36.35870000     -67.45490000
H      -45.80120000     -34.35850000     -71.24250000
H      -49.23000000     -34.13530000     -68.73100000
H      -48.05970000     -35.61180000     -67.01930000
C      -48.37440000     -33.40670000     -71.13300000
H      -49.42990000     -33.49460000     -71.23560000
H      -47.86920000     -33.51180000     -72.12970000
C      -44.15040000     -35.64940000     -69.65880000
H      -44.02180000     -36.73950000     -69.49470000
H      -43.81790000     -35.34850000     -70.69170000
S      -48.22990000     -31.58320000     -70.49800000
S      -43.00900000     -34.66310000     -68.57930000
C      -46.42570000     -31.38640000     -70.24820000
H      -46.34800000     -30.66360000     -69.39510000
H      -46.12400000     -32.29700000     -69.84240000
C      -42.30060000     -33.33910000     -69.70850000
H      -41.55640000     -33.95420000     -70.28250000
H      -41.84080000     -32.72290000     -68.98210000
C      -43.23910000     -32.58910000     -70.51470000
H      -44.16260000     -32.59510000     -69.95050000
H      -42.94040000     -31.55880000     -70.56130000
C      -45.67140000     -30.74690000     -71.43290000
H      -44.71140000     -30.41600000     -71.05360000
H      -46.22400000     -29.95020000     -71.80700000
C      -45.54180000     -31.65090000     -72.60420000
C      -46.32940000     -31.51930000     -73.69870000
C      -44.38000000     -32.49500000     -72.85820000
H      -47.14860000     -30.84470000     -73.96650000
C      -44.40080000     -33.03730000     -74.16270000
C      -43.40460000     -33.05510000     -72.00350000
C      -42.62910000     -33.95730000     -72.68320000
S      -45.67090000     -32.36060000     -75.13510000
S      -43.02230000     -34.07300000     -74.36030000
H      -41.76210000     -34.45940000     -72.36430000
