40
Properties=species:S:1:pos:R:3 #=T CELL(abcABC):=T 1.889726e+02=T 90.00000=T Traj:=T positionsangstrom=T Step:=T 0=T Bead:=T pbc="F F F"
C      -45.46910000     -37.45410000     -70.41920000
C      -44.85850000     -36.41600000     -69.74140000
C      -43.79200000     -35.74650000     -70.39100000
C      -43.33870000     -36.09610000     -71.65260000
C      -43.95600000     -37.16150000     -72.31890000
C      -45.02950000     -37.77220000     -71.70940000
H      -46.30310000     -37.90390000     -69.90660000
H      -43.23770000     -35.04090000     -69.80500000
H      -43.63340000     -37.31290000     -73.34440000
H      -45.52710000     -38.54240000     -72.28320000
C      -42.11570000     -35.50150000     -72.16170000
H      -41.32690000     -36.29080000     -72.39670000
H      -41.75830000     -34.70390000     -71.48450000
C      -45.28940000     -35.88270000     -68.38380000
H      -44.99270000     -36.66490000     -67.68230000
H      -44.68290000     -35.00410000     -68.13950000
S      -42.46600000     -34.71310000     -73.86190000
S      -47.02340000     -35.40700000     -68.33630000
C      -42.88480000     -32.93930000     -73.42020000
H      -42.00920000     -32.43730000     -73.00620000
H      -43.10370000     -32.52760000     -74.40370000
C      -46.92450000     -33.70930000     -69.12240000
H      -45.99870000     -33.32070000     -68.77970000
H      -47.55180000     -33.13870000     -68.43750000
C      -47.16230000     -33.61500000     -70.55580000
H      -46.44070000     -34.22290000     -71.06890000
H      -48.06360000     -34.19020000     -70.80070000
C      -44.11490000     -32.91220000     -72.48470000
H      -43.68920000     -33.14330000     -71.51970000
H      -44.85850000     -33.67730000     -72.79080000
C      -44.76560000     -31.55010000     -72.23850000
C      -44.23760000     -30.35760000     -72.61070000
C      -46.14890000     -31.41320000     -71.73190000
H      -43.27270000     -30.28930000     -73.12370000
C      -46.57980000     -30.02360000     -71.78820000
C      -47.16530000     -32.15610000     -71.04170000
C      -48.22060000     -31.37700000     -70.69470000
S      -45.24230000     -28.93440000     -72.33350000
S      -48.11070000     -29.66580000     -71.13680000
H      -49.15460000     -31.74110000     -70.27360000
