40
Properties=species:S:1:pos:R:3 #=T CELL(abcABC):=T 1.889726e+02=T 90.00000=T Traj:=T positionsangstrom=T Step:=T 0=T Bead:=T pbc="F F F"
C      -45.32090000     -37.29640000     -70.54050000
C      -44.71140000     -36.39970000     -69.73120000
C      -43.60330000     -35.77250000     -70.20790000
C      -43.09710000     -36.05860000     -71.47050000
C      -43.75080000     -36.91670000     -72.34660000
C      -44.83800000     -37.62010000     -71.83880000
H      -46.28880000     -37.69180000     -70.14530000
H      -42.93030000     -35.10970000     -69.66570000
H      -43.24890000     -37.03480000     -73.32750000
H      -45.58940000     -38.15540000     -72.44970000
C      -41.92440000     -35.33560000     -71.98760000
H      -41.11320000     -36.13060000     -72.21330000
H      -41.60910000     -34.51650000     -71.24210000
C      -45.32150000     -36.03940000     -68.37620000
H      -45.39140000     -36.86430000     -67.64820000
H      -44.74170000     -35.24380000     -67.94990000
S      -42.19570000     -34.59750000     -73.61610000
S      -47.20290000     -35.49710000     -68.59450000
C      -43.01110000     -32.96090000     -73.17330000
H      -42.23350000     -32.34880000     -72.65600000
H      -43.10670000     -32.50160000     -74.17450000
C      -46.90700000     -33.76200000     -69.30910000
H      -45.81730000     -33.45200000     -69.27010000
H      -47.45500000     -33.04770000     -68.70930000
C      -47.38730000     -33.69100000     -70.80570000
H      -46.79310000     -34.25130000     -71.52760000
H      -48.43380000     -33.99620000     -70.86630000
C      -44.27000000     -32.98540000     -72.40570000
H      -44.09060000     -33.36820000     -71.40570000
H      -44.99320000     -33.64500000     -72.77410000
C      -44.90740000     -31.64340000     -72.24650000
C      -44.20630000     -30.44720000     -72.42280000
C      -46.25500000     -31.43450000     -71.71610000
H      -43.16040000     -30.25690000     -72.63210000
C      -46.63390000     -30.08300000     -71.74380000
C      -47.40690000     -32.20260000     -71.21780000
C      -48.43220000     -31.38430000     -70.83010000
S      -45.23330000     -29.00650000     -72.22270000
S      -48.21670000     -29.66720000     -71.28570000
H      -49.23150000     -31.61420000     -70.13040000
