40
Properties=species:S:1:pos:R:3 #=T CELL(abcABC):=T 1.889726e+02=T 90.00000=T Traj:=T positionsangstrom=T Step:=T 0=T Bead:=T pbc="F F F"
C      -45.67850000     -37.39610000     -70.50890000
C      -44.95410000     -36.38320000     -69.82130000
C      -43.92060000     -35.74950000     -70.47360000
C      -43.40670000     -36.21210000     -71.71660000
C      -44.14020000     -37.20190000     -72.41670000
C      -45.28580000     -37.79860000     -71.83310000
H      -46.43770000     -37.98640000     -70.00510000
H      -43.34430000     -34.99750000     -69.88130000
H      -43.90910000     -37.59360000     -73.44070000
H      -45.79940000     -38.56560000     -72.43420000
C      -42.16900000     -35.52880000     -72.27980000
H      -41.27640000     -36.12500000     -72.19520000
H      -41.91250000     -34.67340000     -71.54380000
C      -45.29800000     -35.94830000     -68.41490000
H      -45.19560000     -36.76840000     -67.69620000
H      -44.64560000     -35.18390000     -67.96460000
S      -42.58900000     -34.78000000     -73.94580000
S      -46.98240000     -35.30690000     -68.14740000
C      -42.96590000     -33.03550000     -73.47580000
H      -42.13390000     -32.58540000     -72.94810000
H      -43.25120000     -32.61880000     -74.46210000
C      -46.74210000     -33.57680000     -68.69280000
H      -45.78190000     -33.13650000     -68.47050000
H      -47.36150000     -32.84820000     -68.18050000
C      -46.89320000     -33.52110000     -70.31930000
H      -46.01780000     -33.96790000     -70.75580000
H      -47.76420000     -33.94660000     -70.81510000
C      -44.23870000     -33.01670000     -72.59000000
H      -43.98500000     -33.50470000     -71.54480000
H      -44.99590000     -33.65700000     -72.99000000
C      -44.77780000     -31.59750000     -72.35520000
C      -44.29930000     -30.46410000     -72.93420000
C      -45.97750000     -31.35150000     -71.52080000
H      -43.42400000     -30.42090000     -73.52380000
C      -46.37850000     -30.03040000     -71.73600000
C      -47.00870000     -32.08050000     -70.76210000
C      -48.01910000     -31.26340000     -70.43360000
S      -45.34750000     -28.96530000     -72.69830000
S      -47.87020000     -29.63690000     -70.96060000
H      -48.86680000     -31.70790000     -69.90380000
