40
Properties=species:S:1:pos:R:3 #=T CELL(abcABC):=T 1.889726e+02=T 90.00000=T Traj:=T positionsangstrom=T Step:=T 0=T Bead:=T pbc="F F F"
C      -45.93940000     -37.10540000     -70.28010000
C      -44.92120000     -36.41940000     -69.56410000
C      -43.76010000     -35.97800000     -70.25950000
C      -43.62100000     -36.33120000     -71.65370000
C      -44.61240000     -36.98950000     -72.29260000
C      -45.73670000     -37.39960000     -71.62690000
H      -46.90910000     -37.37480000     -69.83580000
H      -42.93450000     -35.46650000     -69.72510000
H      -44.47650000     -37.27990000     -73.31070000
H      -46.54000000     -37.84590000     -72.16380000
C      -42.35020000     -35.98590000     -72.42940000
H      -41.83380000     -36.97860000     -72.65750000
H      -41.57450000     -35.44490000     -71.81840000
C      -45.18090000     -36.13150000     -68.12360000
H      -45.47100000     -37.01380000     -67.53700000
H      -44.34890000     -35.60480000     -67.57900000
S      -42.71690000     -35.00230000     -74.02850000
S      -46.75410000     -35.14470000     -67.99130000
C      -43.20500000     -33.29620000     -73.64500000
H      -42.34770000     -32.95140000     -73.04460000
H      -43.36070000     -32.71160000     -74.57890000
C      -46.30010000     -33.59220000     -68.90320000
H      -45.18810000     -33.57800000     -68.98570000
H      -46.47290000     -32.70480000     -68.33090000
C      -46.86930000     -33.38880000     -70.22360000
H      -46.44450000     -33.82780000     -71.12070000
H      -47.90520000     -33.70670000     -70.19240000
C      -44.49550000     -33.12380000     -72.81130000
H      -44.31680000     -33.62540000     -71.83540000
H      -45.31650000     -33.63520000     -73.24640000
C      -44.99790000     -31.71680000     -72.66670000
C      -44.52680000     -30.62260000     -73.37560000
C      -46.05340000     -31.29040000     -71.70920000
H      -43.78310000     -30.77180000     -74.17020000
C      -46.24550000     -29.93920000     -71.81300000
C      -46.87390000     -31.93910000     -70.70220000
C      -47.69910000     -31.01400000     -70.11690000
S      -45.28830000     -29.05260000     -72.98320000
S      -47.52030000     -29.40620000     -70.76000000
H      -48.37190000     -31.13080000     -69.32330000
