40
Properties=species:S:1:pos:R:3 #=T CELL(abcABC):=T 1.889726e+02=T 90.00000=T Traj:=T positionsangstrom=T Step:=T 0=T Bead:=T pbc="F F F"
C      -46.34370000     -37.03570000     -70.41450000
C      -45.24830000     -36.52420000     -69.62340000
C      -44.05740000     -36.10310000     -70.22380000
C      -43.93330000     -36.21070000     -71.63960000
C      -44.94750000     -36.81830000     -72.41760000
C      -46.14130000     -37.16660000     -71.79640000
H      -47.22850000     -37.37150000     -70.02490000
H      -43.26260000     -35.85580000     -69.56980000
H      -44.80950000     -37.07120000     -73.47720000
H      -46.95220000     -37.63700000     -72.42540000
C      -42.58980000     -35.95640000     -72.34310000
H      -41.92400000     -36.82930000     -72.52530000
H      -41.98890000     -35.43690000     -71.59120000
C      -45.47850000     -36.38500000     -68.17510000
H      -46.08660000     -37.26350000     -67.72750000
H      -44.52290000     -36.35050000     -67.63580000
S      -42.73270000     -35.11590000     -73.99360000
S      -46.40060000     -34.81050000     -67.62790000
C      -43.25080000     -33.41640000     -73.68560000
H      -42.61190000     -32.97680000     -72.87420000
H      -43.03590000     -32.77980000     -74.53360000
C      -45.81800000     -33.41170000     -68.68510000
H      -44.75710000     -33.29540000     -68.57700000
H      -46.13410000     -32.51510000     -68.11270000
C      -46.54630000     -33.40070000     -70.15670000
H      -46.01150000     -34.12790000     -70.74920000
H      -47.58380000     -33.70240000     -70.17040000
C      -44.72560000     -33.16010000     -73.23090000
H      -44.87100000     -33.74250000     -72.37210000
H      -45.38540000     -33.65880000     -74.01490000
C      -45.13300000     -31.76740000     -72.95670000
C      -44.60120000     -30.70530000     -73.65050000
C      -45.91880000     -31.43380000     -71.77090000
H      -43.96340000     -30.79280000     -74.53760000
C      -46.19910000     -30.05960000     -71.87760000
C      -46.63680000     -31.98290000     -70.65760000
C      -47.32640000     -31.01360000     -69.95040000
S      -45.31580000     -29.14490000     -73.11620000
S      -47.21910000     -29.39610000     -70.61160000
H      -47.95390000     -31.22120000     -69.08110000
