40
Properties=species:S:1:pos:R:3 #=T CELL(abcABC):=T 1.889726e+02=T 90.00000=T Traj:=T positionsangstrom=T Step:=T 0=T Bead:=T pbc="F F F"
C      -46.24300000     -36.96920000     -70.10710000
C      -44.92220000     -36.52580000     -69.79980000
C      -43.99920000     -36.47440000     -70.82890000
C      -44.31350000     -36.74990000     -72.20400000
C      -45.65280000     -36.96610000     -72.43210000
C      -46.60690000     -37.08470000     -71.46210000
H      -46.97910000     -37.15920000     -69.32140000
H      -43.02570000     -36.06390000     -70.64030000
H      -46.05880000     -37.19890000     -73.47570000
H      -47.65280000     -37.40680000     -71.69970000
C      -43.32950000     -36.73590000     -73.30830000
H      -43.56010000     -37.31470000     -74.16520000
H      -42.29330000     -37.06440000     -72.99520000
C      -44.52750000     -36.04830000     -68.44630000
H      -44.75720000     -36.84100000     -67.74210000
H      -43.48070000     -35.74110000     -68.44180000
S      -43.03240000     -34.94390000     -73.98770000
S      -45.48540000     -34.63710000     -67.61110000
C      -43.81310000     -33.71670000     -72.77140000
H      -43.87670000     -34.06690000     -71.80900000
H      -43.18310000     -32.84420000     -72.90700000
C      -45.06450000     -33.18630000     -68.60050000
H      -44.05090000     -33.26990000     -69.02490000
H      -45.02780000     -32.36020000     -67.88590000
C      -46.21950000     -33.07660000     -69.69390000
H      -46.16900000     -33.83100000     -70.49060000
H      -47.12530000     -33.24120000     -69.05880000
C      -45.25730000     -33.40240000     -73.12740000
H      -45.93810000     -34.13180000     -72.59580000
H      -45.55210000     -33.54290000     -74.17930000
C      -45.58930000     -31.92750000     -72.88660000
C      -45.46920000     -31.01600000     -73.87870000
C      -46.02310000     -31.30540000     -71.65010000
H      -45.14480000     -31.24270000     -74.88580000
C      -46.23490000     -29.91440000     -71.86900000
C      -46.32780000     -31.66670000     -70.30520000
C      -46.68860000     -30.60920000     -69.50290000
S      -45.81890000     -29.37890000     -73.46230000
S      -46.75100000     -29.15210000     -70.43450000
H      -47.16190000     -30.78860000     -68.57120000
