40
Properties=species:S:1:pos:R:3 #=T CELL(abcABC):=T 1.889726e+02=T 90.00000=T Traj:=T positionsangstrom=T Step:=T 0=T Bead:=T pbc="F F F"
C      -49.02880000     -31.45440000     -70.19520000
C      -48.69510000     -32.57020000     -70.92200000
C      -48.13310000     -33.65450000     -70.19570000
C      -47.76100000     -33.56130000     -68.83060000
C      -48.12210000     -32.37330000     -68.13580000
C      -48.89690000     -31.41830000     -68.79630000
H      -49.56060000     -30.65720000     -70.58320000
H      -47.86490000     -34.50650000     -70.73770000
H      -47.89290000     -32.22640000     -67.08190000
H      -49.16000000     -30.46120000     -68.28270000
C      -47.02340000     -34.69070000     -68.14560000
H      -47.31040000     -35.71030000     -68.55140000
H      -47.23260000     -34.64190000     -67.06760000
C      -49.16620000     -32.81220000     -72.32340000
H      -49.31280000     -33.87750000     -72.53830000
H      -50.19600000     -32.28140000     -72.39710000
S      -45.19690000     -34.71280000     -68.32270000
S      -48.05100000     -32.07510000     -73.68570000
C      -44.80450000     -33.00940000     -68.70700000
H      -45.53130000     -32.31200000     -68.35860000
H      -44.00560000     -32.81590000     -68.08830000
C      -46.57370000     -33.16420000     -73.49600000
H      -46.68280000     -34.02510000     -74.21950000
H      -46.57450000     -33.60930000     -72.49930000
C      -45.27310000     -32.27630000     -73.73820000
H      -45.35050000     -31.87920000     -74.78830000
H      -45.37880000     -31.39080000     -73.04110000
C      -44.68730000     -32.74520000     -70.25770000
H      -44.69190000     -31.68460000     -70.42300000
H      -45.52450000     -33.18710000     -70.73010000
C      -43.49210000     -33.35200000     -70.97690000
C      -42.53270000     -33.94620000     -70.17850000
C      -43.24740000     -33.43240000     -72.37780000
H      -42.59750000     -34.03810000     -69.12020000
C      -42.08030000     -34.14610000     -72.62890000
C      -43.98180000     -33.12030000     -73.63080000
C      -43.33330000     -33.64540000     -74.67800000
S      -41.24870000     -34.62100000     -71.09660000
S      -41.77670000     -34.43200000     -74.31280000
H      -43.60840000     -33.45870000     -75.76010000
