40
Properties=species:S:1:pos:R:3 #=T CELL(abcABC):=T 1.889726e+02=T 90.00000=T Traj:=T positionsangstrom=T Step:=T 0=T Bead:=T pbc="F F F"
C      -46.47340000     -36.79940000     -70.36750000
C      -45.27170000     -36.64630000     -69.61860000
C      -44.07560000     -36.39530000     -70.30490000
C      -44.01860000     -36.39890000     -71.74940000
C      -45.20380000     -36.69330000     -72.44710000
C      -46.45320000     -36.82050000     -71.74540000
H      -47.42660000     -36.98690000     -69.81250000
H      -43.20370000     -35.96330000     -69.77350000
H      -45.17400000     -36.58780000     -73.58450000
H      -47.40590000     -36.86810000     -72.32640000
C      -42.68980000     -36.11090000     -72.41370000
H      -42.03030000     -37.00770000     -72.67100000
H      -42.10310000     -35.58520000     -71.72930000
C      -45.20810000     -36.41960000     -68.18780000
H      -45.76070000     -37.19080000     -67.59340000
H      -44.19540000     -36.35680000     -67.79080000
S      -42.65070000     -35.17130000     -73.96540000
S      -46.01200000     -34.75330000     -67.69640000
C      -43.26320000     -33.49400000     -73.31070000
H      -42.71750000     -33.32030000     -72.35250000
H      -42.97730000     -32.81860000     -74.05750000
C      -45.33470000     -33.47080000     -68.79740000
H      -44.55500000     -33.84070000     -69.44600000
H      -45.14750000     -32.59660000     -68.19940000
C      -46.46080000     -33.17530000     -69.90470000
H      -46.36120000     -33.76570000     -70.75580000
H      -47.44590000     -33.35260000     -69.49450000
C      -44.79220000     -33.39860000     -72.99710000
H      -44.98060000     -33.91990000     -72.04520000
H      -45.29160000     -33.92430000     -73.84330000
C      -45.26890000     -31.94470000     -72.85290000
C      -45.10530000     -30.99220000     -73.85640000
C      -45.85030000     -31.26130000     -71.68330000
H      -44.77990000     -31.11950000     -74.88370000
C      -46.22660000     -29.90560000     -71.89380000
C      -46.42240000     -31.72610000     -70.42490000
C      -47.08440000     -30.71680000     -69.74270000
S      -45.80550000     -29.43530000     -73.48320000
S      -47.07990000     -29.19810000     -70.58890000
H      -47.69500000     -30.70230000     -68.81340000
