40
Properties=species:S:1:pos:R:3 #=T CELL(abcABC):=T 1.889726e+02=T 90.00000=T Traj:=T positionsangstrom=T Step:=T 0=T Bead:=T pbc="F F F"
C      -46.01550000     -36.55630000     -67.76510000
C      -45.29900000     -36.27700000     -68.98760000
C      -46.02210000     -35.81180000     -70.05760000
C      -47.41860000     -35.70590000     -70.07100000
C      -48.10900000     -35.90770000     -68.80990000
C      -47.41620000     -36.39360000     -67.68810000
H      -45.40350000     -36.93390000     -66.90170000
H      -45.38350000     -35.49350000     -70.96150000
H      -49.22790000     -35.81170000     -68.81090000
H      -47.87840000     -36.47130000     -66.72340000
C      -48.11340000     -35.40680000     -71.38740000
H      -49.12980000     -35.86950000     -71.32030000
H      -47.57020000     -35.89490000     -72.25200000
C      -43.82290000     -36.28610000     -68.95930000
H      -43.32830000     -36.82580000     -68.07160000
H      -43.40310000     -36.67830000     -69.85210000
S      -48.15420000     -33.57540000     -71.68260000
S      -43.10530000     -34.55470000     -68.63630000
C      -46.84730000     -32.84850000     -70.56790000
H      -47.11710000     -32.98360000     -69.53250000
H      -45.93740000     -33.39240000     -70.77380000
C      -42.92340000     -34.01440000     -70.40160000
H      -43.55040000     -34.55590000     -71.06460000
H      -41.86760000     -34.10260000     -70.71530000
C      -43.33610000     -32.53950000     -70.59660000
H      -44.26550000     -32.41460000     -69.98330000
H      -42.55450000     -31.99290000     -70.08110000
C      -46.53940000     -31.34710000     -70.89940000
H      -45.84630000     -31.11620000     -70.14700000
H      -47.48150000     -30.78550000     -70.80260000
C      -45.90200000     -31.13010000     -72.22610000
C      -46.66780000     -30.62120000     -73.17780000
C      -44.53810000     -31.48840000     -72.61980000
H      -47.69670000     -30.51070000     -73.14560000
C      -44.32380000     -31.28590000     -74.00490000
C      -43.38850000     -32.10810000     -72.01030000
C      -42.40570000     -32.27830000     -72.93130000
S      -45.74480000     -30.48570000     -74.73510000
S      -42.78070000     -31.81120000     -74.58400000
H      -41.39140000     -32.60510000     -72.70430000
