40
Properties=species:S:1:pos:R:3 #=T CELL(abcABC):=T 1.889726e+02=T 90.00000=T Traj:=T positionsangstrom=T Step:=T 0=T Bead:=T pbc="F F F"
C      -45.89790000     -36.97320000     -69.86000000
C      -44.62550000     -36.37620000     -69.91560000
C      -44.03220000     -36.25430000     -71.12100000
C      -44.73980000     -36.46130000     -72.29200000
C      -46.04960000     -36.95460000     -72.21100000
C      -46.65740000     -37.20130000     -71.01740000
H      -46.40590000     -36.89570000     -68.84370000
H      -42.91310000     -35.99110000     -71.33400000
H      -46.64890000     -36.98760000     -73.12360000
H      -47.71970000     -37.51390000     -70.80610000
C      -44.14390000     -36.27040000     -73.65260000
H      -44.90780000     -36.26650000     -74.39760000
H      -43.43540000     -37.09670000     -73.85080000
C      -43.92380000     -35.76860000     -68.74090000
H      -43.19530000     -36.44110000     -68.34300000
H      -43.26530000     -35.00310000     -69.19060000
S      -43.00330000     -34.81800000     -73.77870000
S      -45.05540000     -34.92670000     -67.54930000
C      -43.89110000     -33.47640000     -72.91010000
H      -43.51560000     -33.51100000     -71.92200000
H      -43.42050000     -32.52550000     -73.33620000
C      -45.22290000     -33.30110000     -68.38760000
H      -44.30290000     -32.65100000     -68.21240000
H      -45.95930000     -32.68790000     -67.79630000
C      -45.66570000     -33.19060000     -69.84880000
H      -44.83980000     -33.66190000     -70.44170000
H      -46.53320000     -33.74890000     -70.20490000
C      -45.46130000     -33.45180000     -73.20790000
H      -45.97990000     -34.14090000     -72.60600000
H      -45.66090000     -33.67530000     -74.23390000
C      -45.83840000     -32.02820000     -72.98900000
C      -46.03240000     -31.18720000     -74.05040000
C      -46.02330000     -31.37260000     -71.67750000
H      -45.96670000     -31.45590000     -75.04220000
C      -46.32820000     -30.00320000     -71.82440000
C      -45.91840000     -31.77400000     -70.30250000
C      -46.19990000     -30.69530000     -69.46240000
S      -46.30490000     -29.50880000     -73.52290000
S      -46.58940000     -29.19400000     -70.35210000
H      -46.24570000     -30.75570000     -68.39980000
