40
Properties=species:S:1:pos:R:3 #=T CELL(abcABC):=T 1.889726e+02=T 90.00000=T Traj:=T positionsangstrom=T Step:=T 0=T Bead:=T pbc="F F F"
C      -45.76720000     -36.16800000     -67.58630000
C      -45.23420000     -36.34000000     -68.89500000
C      -46.16280000     -36.18200000     -69.89270000
C      -47.52680000     -35.91500000     -69.68690000
C      -47.99560000     -35.92490000     -68.35830000
C      -47.12350000     -36.05220000     -67.29830000
H      -45.02970000     -36.29980000     -66.73140000
H      -45.86990000     -36.23030000     -70.94270000
H      -49.08210000     -35.79330000     -68.19760000
H      -47.55210000     -36.08080000     -66.27740000
C      -48.42610000     -35.51470000     -70.88200000
H      -49.51730000     -35.60550000     -70.62050000
H      -48.12540000     -36.13540000     -71.73390000
C      -43.76450000     -36.50880000     -69.19120000
H      -43.37880000     -36.91280000     -68.30400000
H      -43.38980000     -37.27570000     -70.02950000
S      -48.19830000     -33.81010000     -71.52140000
S      -42.81970000     -34.87650000     -69.23860000
C      -46.88130000     -33.05870000     -70.40810000
H      -47.15740000     -33.10400000     -69.39870000
H      -45.90380000     -33.56440000     -70.56290000
C      -42.80150000     -34.23820000     -70.95270000
H      -43.55420000     -34.81880000     -71.55000000
H      -41.80940000     -34.39570000     -71.46890000
C      -43.24610000     -32.79510000     -70.86890000
H      -44.19690000     -32.71180000     -70.37130000
H      -42.58210000     -32.29100000     -70.18200000
C      -46.59190000     -31.58160000     -70.80890000
H      -45.86890000     -31.26770000     -70.07360000
H      -47.50200000     -30.93120000     -70.72140000
C      -45.96580000     -31.20050000     -72.19870000
C      -46.73810000     -30.55720000     -73.18950000
C      -44.70780000     -31.54140000     -72.70220000
H      -47.81680000     -30.26670000     -73.15700000
C      -44.49310000     -31.03680000     -73.95980000
C      -43.44460000     -32.10140000     -72.22580000
C      -42.38410000     -31.93820000     -73.04260000
S      -45.84790000     -30.28200000     -74.71390000
S      -42.83380000     -31.16440000     -74.55990000
H      -41.42840000     -32.39210000     -73.00950000
