40
Properties=species:S:1:pos:R:3 #=T CELL(abcABC):=T 1.889726e+02=T 90.00000=T Traj:=T positionsangstrom=T Step:=T 0=T Bead:=T pbc="F F F"
C      -46.15520000     -36.43310000     -67.71150000
C      -45.36610000     -36.28050000     -68.85430000
C      -46.02620000     -35.97380000     -70.12680000
C      -47.36690000     -35.78640000     -70.17150000
C      -48.15870000     -36.02040000     -69.01270000
C      -47.54310000     -36.35350000     -67.83580000
H      -45.61980000     -36.65950000     -66.70440000
H      -45.37410000     -35.92110000     -71.00700000
H      -49.29270000     -36.05270000     -69.01710000
H      -48.12070000     -36.50340000     -66.91460000
C      -48.09280000     -35.30340000     -71.40540000
H      -49.07800000     -35.67750000     -71.40270000
H      -47.59640000     -35.52300000     -72.36660000
C      -43.84830000     -36.33210000     -68.75540000
H      -43.56590000     -36.97120000     -67.90020000
H      -43.50530000     -36.76070000     -69.70450000
S      -48.14740000     -33.40150000     -71.61290000
S      -43.01690000     -34.57890000     -68.62350000
C      -46.93530000     -32.69740000     -70.48890000
H      -47.27310000     -32.66520000     -69.43710000
H      -46.01440000     -33.39910000     -70.32540000
C      -43.07260000     -33.99400000     -70.34980000
H      -43.93810000     -34.58740000     -70.74600000
H      -42.21310000     -34.44040000     -70.84330000
C      -43.15280000     -32.54620000     -70.54860000
H      -43.92070000     -32.11470000     -69.91510000
H      -42.26090000     -31.96560000     -70.27470000
C      -46.58090000     -31.29250000     -70.81740000
H      -45.81410000     -30.91710000     -70.17310000
H      -47.43810000     -30.58810000     -70.82210000
C      -45.96500000     -31.24450000     -72.28100000
C      -46.62140000     -30.71470000     -73.31880000
C      -44.58890000     -31.64470000     -72.62780000
H      -47.56050000     -30.21700000     -73.43320000
C      -44.34470000     -31.42990000     -74.00900000
C      -43.37590000     -32.16540000     -72.03740000
C      -42.34020000     -32.30080000     -72.93650000
S      -45.69230000     -30.62220000     -74.78010000
S      -42.73340000     -31.66330000     -74.58020000
H      -41.33990000     -32.56060000     -72.65760000
