40
Properties=species:S:1:pos:R:3 #=T CELL(abcABC):=T 1.889726e+02=T 90.00000=T Traj:=T positionsangstrom=T Step:=T 0=T Bead:=T pbc="F F F"
C      -42.73220000     -36.58170000     -72.24960000
C      -42.71760000     -35.28320000     -72.96020000
C      -43.86360000     -35.00020000     -73.76860000
C      -45.02760000     -35.78410000     -73.69350000
C      -45.06510000     -36.90670000     -72.87660000
C      -43.88490000     -37.34090000     -72.17160000
H      -41.85750000     -36.73480000     -71.61080000
H      -43.87740000     -34.11700000     -74.42660000
H      -45.97180000     -37.54170000     -72.73880000
H      -43.84970000     -38.36640000     -71.69140000
C      -46.12580000     -35.44630000     -74.59750000
H      -46.15560000     -36.23710000     -75.34880000
H      -45.91570000     -34.49190000     -75.11960000
C      -41.47850000     -34.42870000     -72.70140000
H      -40.69660000     -35.11920000     -72.79330000
H      -41.40120000     -33.54580000     -73.42530000
S      -47.87890000     -35.22170000     -73.79440000
S      -41.39290000     -33.91610000     -70.91870000
C      -47.80200000     -33.49100000     -73.14640000
H      -47.56250000     -32.76550000     -73.96300000
H      -48.80920000     -33.16100000     -72.82030000
C      -42.73050000     -32.64840000     -70.78660000
H      -42.96420000     -32.25810000     -71.78230000
H      -42.32770000     -31.77060000     -70.25890000
C      -43.96010000     -33.20170000     -70.09360000
H      -44.62360000     -33.67310000     -70.75220000
H      -43.75780000     -33.82230000     -69.32710000
C      -46.77180000     -33.28620000     -72.03510000
H      -45.87310000     -32.82510000     -72.52350000
H      -46.46450000     -34.23190000     -71.59690000
C      -47.17660000     -32.26500000     -70.98690000
C      -48.42410000     -31.72630000     -70.84080000
C      -46.20120000     -31.85540000     -69.96740000
H      -49.26740000     -31.89130000     -71.54880000
C      -46.82720000     -30.98960000     -69.06950000
C      -44.84700000     -32.09370000     -69.53550000
C      -44.48110000     -31.32340000     -68.45890000
S      -48.52910000     -30.54800000     -69.52080000
S      -45.78600000     -30.14870000     -67.99600000
H      -43.61550000     -31.12670000     -67.86550000
