40
Properties=species:S:1:pos:R:3 #=T CELL(abcABC):=T 1.889726e+02=T 90.00000=T Traj:=T positionsangstrom=T Step:=T 0=T Bead:=T pbc="F F F"
C      -46.06240000     -36.28060000     -67.87650000
C      -45.34430000     -36.19350000     -69.09930000
C      -46.05760000     -36.13250000     -70.25000000
C      -47.48910000     -36.00430000     -70.26610000
C      -48.10580000     -35.94740000     -69.05630000
C      -47.40370000     -36.07340000     -67.84840000
H      -45.46980000     -36.40890000     -66.89310000
H      -45.60290000     -36.15810000     -71.24510000
H      -49.17460000     -35.86520000     -69.01710000
H      -47.96520000     -35.94310000     -66.90260000
C      -48.23470000     -35.73030000     -71.52940000
H      -49.21420000     -36.09850000     -71.53380000
H      -47.79080000     -36.13610000     -72.38130000
C      -43.82810000     -36.23380000     -69.07390000
H      -43.46850000     -37.05010000     -68.41500000
H      -43.47670000     -36.53090000     -70.01610000
S      -48.43070000     -33.82010000     -71.73160000
S      -43.18830000     -34.59450000     -68.57600000
C      -47.04980000     -33.16100000     -70.73320000
H      -47.35560000     -33.19210000     -69.70310000
H      -46.15560000     -33.76440000     -70.97420000
C      -43.30720000     -33.90870000     -70.26170000
H      -44.19060000     -34.35390000     -70.60270000
H      -42.43330000     -34.30070000     -70.77580000
C      -43.22430000     -32.38560000     -70.39790000
H      -43.95090000     -31.85720000     -69.75420000
H      -42.24760000     -32.20150000     -69.86930000
C      -46.73870000     -31.71400000     -71.03840000
H      -46.25190000     -31.27690000     -70.14990000
H      -47.62920000     -31.12950000     -71.07940000
C      -45.91930000     -31.38940000     -72.32030000
C      -46.56720000     -31.01560000     -73.48500000
C      -44.45030000     -31.50470000     -72.53330000
H      -47.60010000     -30.67920000     -73.46160000
C      -44.20440000     -31.09490000     -73.84230000
C      -43.28750000     -31.91010000     -71.80780000
C      -42.13940000     -31.80620000     -72.59240000
S      -45.49540000     -30.51320000     -74.76630000
S      -42.48320000     -31.30250000     -74.20780000
H      -41.14870000     -32.04030000     -72.26780000
