40
Properties=species:S:1:pos:R:3 #=T CELL(abcABC):=T 1.889726e+02=T 90.00000=T Traj:=T positionsangstrom=T Step:=T 0=T Bead:=T pbc="F F F"
C      -42.85000000     -36.43150000     -71.71280000
C      -42.51000000     -35.30560000     -72.53010000
C      -43.39080000     -34.87880000     -73.51530000
C      -44.70010000     -35.36580000     -73.56010000
C      -45.04180000     -36.43350000     -72.75570000
C      -44.14200000     -37.03770000     -71.90940000
H      -42.19430000     -36.89200000     -70.94870000
H      -43.01060000     -34.11090000     -74.17280000
H      -46.03170000     -36.76240000     -72.70020000
H      -44.28800000     -37.97620000     -71.45660000
C      -45.67460000     -34.65870000     -74.53300000
H      -45.43750000     -34.90100000     -75.63320000
H      -45.52930000     -33.55760000     -74.43050000
C      -41.15540000     -34.59420000     -72.43920000
H      -40.40330000     -35.31250000     -72.02940000
H      -40.77040000     -34.37710000     -73.48470000
S      -47.45320000     -35.08240000     -74.23070000
S      -41.17230000     -33.20770000     -71.25090000
C      -47.93120000     -33.79630000     -72.95630000
H      -47.63750000     -32.87810000     -73.43150000
H      -48.99170000     -33.93260000     -72.79800000
C      -42.94070000     -32.47290000     -71.11990000
H      -43.28750000     -32.09930000     -72.07040000
H      -42.57880000     -31.64150000     -70.54250000
C      -44.00160000     -33.22700000     -70.35890000
H      -44.48640000     -34.09940000     -70.80260000
H      -43.64810000     -33.77620000     -69.48930000
C      -47.21950000     -33.97050000     -71.61770000
H      -46.18520000     -34.00250000     -71.87490000
H      -47.47750000     -34.95770000     -71.16290000
C      -47.43940000     -32.91950000     -70.61700000
C      -48.73570000     -32.40860000     -70.41950000
C      -46.44750000     -32.17050000     -69.91320000
H      -49.69900000     -32.84680000     -70.71340000
C      -47.07560000     -31.18480000     -69.18610000
C      -44.95770000     -32.17510000     -69.78150000
C      -44.57150000     -31.12600000     -68.93090000
S      -48.79910000     -31.15150000     -69.24560000
S      -45.90470000     -30.16180000     -68.38800000
H      -43.56930000     -30.89270000     -68.50960000
