40
Properties=species:S:1:pos:R:3 #=T CELL(abcABC):=T 1.889726e+02=T 90.00000=T Traj:=T positionsangstrom=T Step:=T 0=T Bead:=T pbc="F F F"
C      -46.36620000     -36.89680000     -68.38300000
C      -45.46160000     -36.64530000     -69.42430000
C      -45.93360000     -36.24530000     -70.67530000
C      -47.26050000     -36.06380000     -70.90630000
C      -48.18080000     -36.40190000     -69.84640000
C      -47.75860000     -36.71970000     -68.58120000
H      -45.98120000     -37.28810000     -67.42160000
H      -45.19740000     -36.12210000     -71.49130000
H      -49.30540000     -36.43250000     -70.04940000
H      -48.41710000     -37.11290000     -67.83510000
C      -47.76740000     -35.54320000     -72.20170000
H      -48.72130000     -36.06510000     -72.40170000
H      -47.15220000     -35.68040000     -73.06270000
C      -44.00110000     -36.72520000     -69.11220000
H      -43.76520000     -37.27420000     -68.16010000
H      -43.40120000     -37.09730000     -69.95900000
S      -48.22880000     -33.75070000     -72.09440000
S      -43.39480000     -35.01780000     -68.64100000
C      -47.00240000     -33.02520000     -70.82860000
H      -47.31280000     -33.28310000     -69.84000000
H      -46.07500000     -33.53610000     -71.03800000
C      -43.12580000     -34.01770000     -70.24880000
H      -43.69510000     -34.42490000     -71.12450000
H      -42.05680000     -34.02210000     -70.50710000
C      -43.69220000     -32.60590000     -70.02450000
H      -44.82880000     -32.61070000     -69.73860000
H      -43.09560000     -32.06620000     -69.13930000
C      -46.93160000     -31.55370000     -71.03570000
H      -46.60290000     -30.95110000     -70.11680000
H      -48.01730000     -31.14020000     -71.13970000
C      -46.03930000     -31.15030000     -72.14260000
C      -46.45840000     -30.54690000     -73.28240000
C      -44.57840000     -31.26780000     -72.15980000
H      -47.50090000     -30.25220000     -73.47340000
C      -44.03130000     -30.80760000     -73.37040000
C      -43.52340000     -31.75700000     -71.29110000
C      -42.28210000     -31.64790000     -71.87940000
S      -45.25800000     -30.02960000     -74.44110000
S      -42.30740000     -30.93000000     -73.48960000
H      -41.30890000     -32.07700000     -71.66850000
