40
Properties=species:S:1:pos:R:3 #=T CELL(abcABC):=T 1.889726e+02=T 90.00000=T Traj:=T positionsangstrom=T Step:=T 0=T Bead:=T pbc="F F F"
C      -46.12810000     -36.67890000     -67.99110000
C      -45.41620000     -36.42440000     -69.12020000
C      -46.10070000     -36.13940000     -70.34050000
C      -47.45780000     -35.96260000     -70.33580000
C      -48.16130000     -36.16420000     -69.15360000
C      -47.50780000     -36.52430000     -67.97060000
H      -45.62670000     -36.95470000     -67.11960000
H      -45.52560000     -36.01590000     -71.20950000
H      -49.23870000     -36.02470000     -69.24510000
H      -48.06870000     -36.65610000     -67.07090000
C      -48.14190000     -35.63000000     -71.64910000
H      -49.07590000     -36.08660000     -71.70070000
H      -47.53370000     -35.90580000     -72.42290000
C      -43.90920000     -36.62940000     -69.03130000
H      -43.65860000     -37.25850000     -68.24920000
H      -43.42020000     -36.95370000     -69.97110000
S      -48.35760000     -33.79460000     -71.79170000
S      -43.23700000     -34.82130000     -68.73280000
C      -46.86700000     -33.08320000     -70.88490000
H      -46.94880000     -33.22160000     -69.80480000
H      -45.92860000     -33.57250000     -71.24280000
C      -43.31860000     -34.00200000     -70.34360000
H      -44.10540000     -34.48920000     -70.95000000
H      -42.46770000     -34.13510000     -70.94860000
C      -43.56030000     -32.48960000     -70.26410000
H      -44.50320000     -32.25980000     -69.70760000
H      -42.73890000     -32.12570000     -69.60680000
C      -46.82020000     -31.55370000     -71.21800000
H      -46.29360000     -31.07100000     -70.47080000
H      -47.80490000     -31.19260000     -71.35680000
C      -46.01000000     -31.22110000     -72.44810000
C      -46.57030000     -30.86800000     -73.66130000
C      -44.56150000     -31.28860000     -72.46530000
H      -47.62220000     -30.96800000     -73.94460000
C      -44.07270000     -30.86170000     -73.68700000
C      -43.49430000     -31.81370000     -71.62070000
C      -42.24480000     -31.62090000     -72.19600000
S      -45.31690000     -30.45080000     -74.83470000
S      -42.31230000     -30.92690000     -73.73500000
H      -41.38520000     -32.02630000     -71.58640000
