40
Properties=species:S:1:pos:R:3 #=T CELL(abcABC):=T 1.889726e+02=T 90.00000=T Traj:=T positionsangstrom=T Step:=T 0=T Bead:=T pbc="F F F"
C      -42.07900000     -35.72180000     -72.40860000
C      -42.31270000     -34.44250000     -72.92470000
C      -43.41270000     -34.22720000     -73.80650000
C      -44.24850000     -35.31810000     -74.14740000
C      -43.89440000     -36.65630000     -73.76620000
C      -42.80000000     -36.81070000     -72.86050000
H      -41.23810000     -35.91640000     -71.74840000
H      -43.54120000     -33.18950000     -74.20270000
H      -44.31640000     -37.60180000     -74.18090000
H      -42.58180000     -37.90050000     -72.53090000
C      -45.47910000     -35.15150000     -74.97770000
H      -45.50950000     -35.75160000     -75.82040000
H      -45.51460000     -34.12820000     -75.33200000
C      -41.33710000     -33.28550000     -72.67830000
H      -40.26180000     -33.49080000     -72.65430000
H      -41.45240000     -32.55650000     -73.49430000
S      -47.00000000     -35.53560000     -73.91250000
S      -41.52190000     -32.43970000     -71.11880000
C      -47.23140000     -34.00380000     -72.85720000
H      -46.27400000     -33.41830000     -73.13580000
H      -48.05690000     -33.36640000     -73.10230000
C      -43.31570000     -31.72170000     -71.21160000
H      -43.60980000     -31.72480000     -72.28450000
H      -43.31250000     -30.73090000     -70.81050000
C      -44.24580000     -32.63430000     -70.42600000
H      -44.75490000     -33.22800000     -71.17080000
H      -43.63360000     -33.22610000     -69.71430000
C      -47.10480000     -34.51030000     -71.48570000
H      -46.11980000     -34.94010000     -71.37390000
H      -47.79440000     -35.36840000     -71.21140000
C      -47.47060000     -33.47360000     -70.39120000
C      -48.79150000     -33.50410000     -69.83720000
C      -46.67340000     -32.38540000     -69.74720000
H      -49.51530000     -34.22800000     -70.15460000
C      -47.44830000     -31.69530000     -68.83170000
C      -45.33420000     -31.91680000     -69.69650000
C      -45.17110000     -30.78890000     -68.92070000
S      -49.12220000     -32.15680000     -68.71270000
S      -46.70450000     -30.31590000     -68.02320000
H      -44.32110000     -30.13280000     -69.05000000
