40
Properties=species:S:1:pos:R:3 #=T CELL(abcABC):=T 1.889726e+02=T 90.00000=T Traj:=T positionsangstrom=T Step:=T 0=T Bead:=T pbc="F F F"
C      -46.66330000     -37.15850000     -68.92980000
C      -45.68700000     -36.63100000     -69.79420000
C      -46.05020000     -36.10890000     -71.04620000
C      -47.38690000     -35.97860000     -71.42310000
C      -48.40370000     -36.45450000     -70.53220000
C      -48.02450000     -37.16050000     -69.35200000
H      -46.38850000     -37.48680000     -67.97000000
H      -45.31210000     -35.69290000     -71.67560000
H      -49.45180000     -36.15310000     -70.70060000
H      -48.84500000     -37.64780000     -68.75620000
C      -47.82410000     -35.28690000     -72.68500000
H      -48.88240000     -35.53600000     -72.99670000
H      -47.22310000     -35.74260000     -73.47280000
C      -44.21830000     -36.65300000     -69.33580000
H      -44.09470000     -37.53440000     -68.73100000
H      -43.46270000     -36.78160000     -70.15110000
S      -47.57000000     -33.44480000     -72.56300000
S      -43.68150000     -35.07820000     -68.44800000
C      -47.05060000     -33.15080000     -70.74020000
H      -47.87150000     -33.38190000     -70.02980000
H      -46.20370000     -33.82110000     -70.47030000
C      -43.18790000     -34.12010000     -69.95260000
H      -43.78560000     -34.44260000     -70.72650000
H      -42.09720000     -34.20640000     -70.15170000
C      -43.43310000     -32.56840000     -69.75740000
H      -44.47630000     -32.48160000     -69.30640000
H      -42.67400000     -32.17320000     -69.00950000
C      -46.78120000     -31.70480000     -70.55820000
H      -46.17880000     -31.47250000     -69.64030000
H      -47.61840000     -31.13010000     -70.49270000
C      -45.89510000     -31.18470000     -71.66620000
C      -46.49660000     -30.60050000     -72.73820000
C      -44.46120000     -31.30110000     -71.79400000
H      -47.59430000     -30.74650000     -72.84020000
C      -44.04790000     -30.66650000     -73.01080000
C      -43.39730000     -31.89260000     -71.13300000
C      -42.16820000     -31.70160000     -71.78070000
S      -45.32280000     -30.04300000     -74.00520000
S      -42.29050000     -30.86940000     -73.32900000
H      -41.26030000     -31.95290000     -71.29180000
