40
Properties=species:S:1:pos:R:3 #=T CELL(abcABC):=T 1.889726e+02=T 90.00000=T Traj:=T positionsangstrom=T Step:=T 0=T Bead:=T pbc="F F F"
C      -46.62870000     -37.06100000     -68.78440000
C      -45.61590000     -36.76320000     -69.70280000
C      -45.94920000     -36.32980000     -70.96030000
C      -47.29620000     -36.12500000     -71.35040000
C      -48.31830000     -36.47480000     -70.47810000
C      -47.96830000     -36.96970000     -69.19780000
H      -46.37890000     -37.42480000     -67.76730000
H      -45.15160000     -36.30050000     -71.73970000
H      -49.38000000     -36.40880000     -70.79210000
H      -48.78970000     -37.19240000     -68.48510000
C      -47.58680000     -35.39740000     -72.65210000
H      -48.60110000     -35.54570000     -73.01430000
H      -46.92460000     -35.66670000     -73.46100000
C      -44.21100000     -36.72920000     -69.21900000
H      -44.04950000     -37.40500000     -68.39990000
H      -43.46160000     -36.90410000     -70.01410000
S      -47.64690000     -33.56770000     -72.37640000
S      -43.78580000     -35.06140000     -68.57890000
C      -46.84690000     -33.21850000     -70.74260000
H      -47.52690000     -33.73870000     -70.02190000
H      -45.92410000     -33.68220000     -70.73250000
C      -43.22690000     -34.16360000     -70.03640000
H      -43.66800000     -34.60870000     -70.96670000
H      -42.09860000     -34.34800000     -70.10560000
C      -43.53980000     -32.62840000     -69.91260000
H      -44.48100000     -32.42750000     -69.51480000
H      -42.84440000     -32.16250000     -69.23810000
C      -46.75520000     -31.69270000     -70.59250000
H      -46.16590000     -31.50630000     -69.62140000
H      -47.76650000     -31.24500000     -70.55690000
C      -45.93250000     -31.18680000     -71.76120000
C      -46.47100000     -30.44100000     -72.76560000
C      -44.49330000     -31.39310000     -71.98080000
H      -47.55390000     -30.20950000     -72.87910000
C      -44.06920000     -30.68770000     -73.15120000
C      -43.38850000     -31.90930000     -71.25140000
C      -42.15350000     -31.52830000     -71.77200000
S      -45.39080000     -30.05100000     -74.01530000
S      -42.35850000     -30.60750000     -73.33330000
H      -41.21010000     -31.82120000     -71.44510000
