40
Properties=species:S:1:pos:R:3 #=T CELL(abcABC):=T 1.889726e+02=T 90.00000=T Traj:=T positionsangstrom=T Step:=T 0=T Bead:=T pbc="F F F"
C      -46.58590000     -37.13530000     -68.64610000
C      -45.57320000     -36.77100000     -69.51760000
C      -45.91160000     -36.50080000     -70.84680000
C      -47.25400000     -36.17750000     -71.21660000
C      -48.27440000     -36.36860000     -70.26390000
C      -47.96990000     -36.86010000     -68.99370000
H      -46.32060000     -37.56800000     -67.65460000
H      -45.16270000     -36.11830000     -71.52010000
H      -49.27220000     -36.11800000     -70.57300000
H      -48.76800000     -37.13020000     -68.31480000
C      -47.47660000     -35.58590000     -72.54730000
H      -48.36460000     -35.85410000     -73.15760000
H      -46.57200000     -35.70210000     -73.21580000
C      -44.12790000     -36.77240000     -69.13300000
H      -44.07490000     -37.35390000     -68.15960000
H      -43.43020000     -37.19430000     -69.85280000
S      -47.93640000     -33.76280000     -72.32760000
S      -43.66750000     -35.04090000     -68.64770000
C      -46.96690000     -33.23850000     -70.88970000
H      -47.53030000     -33.52000000     -70.03990000
H      -45.98880000     -33.80530000     -70.76910000
C      -43.33150000     -34.06390000     -70.14930000
H      -44.08360000     -34.09020000     -70.96170000
H      -42.42030000     -34.40450000     -70.59330000
C      -43.38420000     -32.53520000     -69.87720000
H      -44.32010000     -32.33280000     -69.24450000
H      -42.47360000     -32.29010000     -69.23020000
C      -46.69640000     -31.68630000     -70.72420000
H      -46.17300000     -31.46040000     -69.84200000
H      -47.63620000     -31.21170000     -70.55540000
C      -45.93860000     -31.09570000     -71.87140000
C      -46.54570000     -30.46130000     -72.91490000
C      -44.49750000     -31.18150000     -72.00300000
H      -47.48840000     -30.11010000     -72.79990000
C      -44.03400000     -30.51820000     -73.11150000
C      -43.39980000     -31.77250000     -71.19110000
C      -42.25310000     -31.55910000     -71.89170000
S      -45.34910000     -29.89480000     -74.09000000
S      -42.33780000     -30.75990000     -73.45420000
H      -41.18620000     -31.85740000     -71.63170000
