40
Properties=species:S:1:pos:R:3 #=T CELL(abcABC):=T 1.889726e+02=T 90.00000=T Traj:=T positionsangstrom=T Step:=T 0=T Bead:=T pbc="F F F"
C      -48.43440000     -31.49900000     -69.67800000
C      -48.77060000     -32.78360000     -70.20000000
C      -48.03260000     -33.87170000     -69.74350000
C      -47.04310000     -33.81740000     -68.76860000
C      -46.67310000     -32.51190000     -68.29930000
C      -47.35530000     -31.42040000     -68.75410000
H      -48.96910000     -30.64340000     -70.06270000
H      -48.40310000     -34.87890000     -70.05900000
H      -45.89150000     -32.45200000     -67.56710000
H      -47.03200000     -30.38540000     -68.42180000
C      -46.40560000     -34.99700000     -68.16730000
H      -46.47230000     -35.77290000     -68.96880000
H      -46.97740000     -35.38530000     -67.34730000
C      -49.80110000     -32.94190000     -71.29970000
H      -50.46640000     -33.78720000     -71.10160000
H      -50.34930000     -31.99530000     -71.48530000
S      -44.64370000     -34.84840000     -67.61590000
S      -48.94330000     -33.46720000     -72.95460000
C      -43.73730000     -34.04760000     -69.04810000
H      -44.30330000     -33.06340000     -69.11400000
H      -42.75600000     -33.94960000     -68.85620000
C      -47.34550000     -32.55600000     -73.24550000
H      -47.54070000     -31.46360000     -73.29140000
H      -46.99610000     -32.84020000     -74.25980000
C      -46.16360000     -32.98050000     -72.38990000
H      -46.11170000     -32.39990000     -71.44340000
H      -46.31090000     -33.98070000     -72.02480000
C      -43.88480000     -34.81180000     -70.31190000
H      -44.96700000     -34.85570000     -70.66340000
H      -43.61750000     -35.85890000     -70.20660000
C      -43.05560000     -34.25470000     -71.47320000
C      -41.69410000     -34.56910000     -71.53270000
C      -43.58440000     -33.58060000     -72.62540000
H      -41.15720000     -34.99640000     -70.70630000
C      -42.51300000     -33.23820000     -73.53540000
C      -44.82970000     -32.94830000     -73.07120000
C      -44.62670000     -32.11570000     -74.13410000
S      -40.93820000     -33.81100000     -72.89400000
S      -42.98060000     -32.14440000     -74.80460000
H      -45.28950000     -31.41620000     -74.67650000
