40
Properties=species:S:1:pos:R:3 #=T CELL(abcABC):=T 1.889726e+02=T 90.00000=T Traj:=T positionsangstrom=T Step:=T 0=T Bead:=T pbc="F F F"
C      -47.10120000     -37.21990000     -68.57290000
C      -46.08850000     -36.72190000     -69.47070000
C      -46.49010000     -36.12120000     -70.66690000
C      -47.80350000     -35.93650000     -71.07210000
C      -48.75840000     -36.47050000     -70.13710000
C      -48.42300000     -37.08570000     -68.94330000
H      -46.80610000     -37.74670000     -67.62450000
H      -45.71180000     -36.06440000     -71.40840000
H      -49.83290000     -36.46140000     -70.36560000
H      -49.10750000     -37.38170000     -68.11670000
C      -48.14350000     -35.21840000     -72.33650000
H      -49.22180000     -34.85740000     -72.40890000
H      -47.95340000     -35.88890000     -73.23320000
C      -44.60700000     -36.95360000     -69.23760000
H      -44.34390000     -37.88700000     -68.59710000
H      -44.17120000     -37.24610000     -70.25810000
S      -46.96840000     -33.75020000     -72.65270000
S      -43.56050000     -35.49440000     -68.54790000
C      -47.34640000     -32.73830000     -71.08980000
H      -48.46530000     -32.83280000     -70.87170000
H      -46.79660000     -33.18930000     -70.35270000
C      -43.35670000     -34.40290000     -70.14470000
H      -43.73050000     -35.05500000     -70.90140000
H      -42.26800000     -34.32530000     -70.32500000
C      -44.01460000     -33.03350000     -70.10650000
H      -45.11110000     -33.20300000     -70.11860000
H      -43.87490000     -32.66560000     -69.14750000
C      -46.90050000     -31.28880000     -71.13410000
H      -46.52560000     -30.94370000     -70.12270000
H      -47.80920000     -30.63670000     -71.29990000
C      -45.85560000     -30.86220000     -72.11410000
C      -46.10090000     -30.04150000     -73.16790000
C      -44.43470000     -31.13130000     -72.02950000
H      -47.14430000     -29.64960000     -73.35140000
C      -43.73840000     -30.51860000     -73.04440000
C      -43.57050000     -32.12470000     -71.32460000
C      -42.25900000     -32.06800000     -71.75970000
S      -44.72020000     -29.50020000     -74.07150000
S      -41.97180000     -30.83100000     -72.98430000
H      -41.38070000     -32.47770000     -71.27300000
