40
Properties=species:S:1:pos:R:3 #=T CELL(abcABC):=T 1.889726e+02=T 90.00000=T Traj:=T positionsangstrom=T Step:=T 0=T Bead:=T pbc="F F F"
C      -48.12030000     -31.48670000     -69.84680000
C      -48.65330000     -32.71890000     -70.30360000
C      -48.08060000     -33.86290000     -69.77540000
C      -47.00340000     -33.77100000     -68.78480000
C      -46.67450000     -32.48650000     -68.21870000
C      -47.27190000     -31.35720000     -68.75350000
H      -48.64450000     -30.64180000     -70.35290000
H      -48.24460000     -34.78890000     -70.28150000
H      -46.01620000     -32.54060000     -67.29420000
H      -47.10660000     -30.39790000     -68.28430000
C      -46.41020000     -35.03030000     -68.25320000
H      -46.37380000     -35.85190000     -69.04270000
H      -47.01040000     -35.42880000     -67.36470000
C      -49.68310000     -32.72120000     -71.36960000
H      -50.49950000     -33.47370000     -71.17790000
H      -50.18630000     -31.78400000     -71.69250000
S      -44.68100000     -34.81980000     -67.57020000
S      -48.90860000     -33.51540000     -72.92560000
C      -43.84200000     -34.19880000     -69.08430000
H      -44.02880000     -33.14160000     -69.15680000
H      -42.69660000     -34.19490000     -68.89320000
C      -47.31750000     -32.49000000     -73.14510000
H      -47.56230000     -31.42110000     -72.94650000
H      -47.19110000     -32.61800000     -74.22860000
C      -46.12760000     -32.97450000     -72.28970000
H      -45.99510000     -32.46970000     -71.33650000
H      -46.40430000     -34.05440000     -72.13250000
C      -44.11470000     -34.88670000     -70.41210000
H      -45.09210000     -34.81420000     -70.80800000
H      -43.87230000     -35.97620000     -70.31620000
C      -43.18180000     -34.31370000     -71.45340000
C      -41.86680000     -34.70300000     -71.58470000
C      -43.54120000     -33.36030000     -72.52230000
H      -41.43400000     -35.41780000     -70.85120000
C      -42.50050000     -33.03460000     -73.34600000
C      -44.81100000     -32.77290000     -73.02140000
C      -44.57540000     -32.08780000     -74.15520000
S      -41.10980000     -33.97980000     -72.95380000
S      -42.87230000     -32.20060000     -74.78180000
H      -45.23400000     -31.52650000     -74.80060000
