40
Properties=species:S:1:pos:R:3 #=T CELL(abcABC):=T 1.889726e+02=T 90.00000=T Traj:=T positionsangstrom=T Step:=T 0=T Bead:=T pbc="F F F"
C      -48.05080000     -30.74320000     -69.53520000
C      -48.35260000     -31.97790000     -70.21600000
C      -47.87070000     -33.19350000     -69.62360000
C      -47.06060000     -33.20500000     -68.46430000
C      -46.85290000     -31.93490000     -67.81010000
C      -47.30050000     -30.77800000     -68.36620000
H      -48.40490000     -29.80380000     -69.95650000
H      -48.10350000     -34.18710000     -70.08400000
H      -46.21880000     -31.95800000     -66.91790000
H      -47.13930000     -29.86810000     -67.75940000
C      -46.68230000     -34.53150000     -67.88510000
H      -47.22620000     -35.28940000     -68.43810000
H      -47.12000000     -34.59930000     -66.92610000
C      -49.17740000     -31.91150000     -71.49840000
H      -50.21920000     -31.94480000     -71.31780000
H      -49.04470000     -30.97670000     -72.09270000
S      -45.00790000     -35.01480000     -67.82700000
S      -48.86940000     -33.21480000     -72.74160000
C      -44.22950000     -34.32510000     -69.33210000
H      -44.61840000     -33.34240000     -69.63030000
H      -43.20920000     -33.98200000     -68.95450000
C      -47.16780000     -32.81140000     -73.28930000
H      -46.92480000     -31.79020000     -72.89080000
H      -47.16950000     -32.70030000     -74.38570000
C      -46.12100000     -33.70820000     -72.70880000
H      -46.09910000     -33.63250000     -71.62150000
H      -46.37830000     -34.71980000     -72.95760000
C      -44.13530000     -35.27100000     -70.50850000
H      -45.08900000     -35.52270000     -70.90040000
H      -43.73270000     -36.13090000     -69.98170000
C      -43.19940000     -34.72380000     -71.56850000
C      -41.89480000     -35.15210000     -71.68090000
C      -43.56370000     -33.80020000     -72.63890000
H      -41.35730000     -35.80470000     -71.01340000
C      -42.45830000     -33.50560000     -73.40690000
C      -44.76930000     -33.28750000     -73.21100000
C      -44.54130000     -32.41720000     -74.29450000
S      -40.98630000     -34.26980000     -72.98100000
S      -42.84770000     -32.46020000     -74.79370000
H      -45.24090000     -31.83580000     -74.92480000
