40
Properties=species:S:1:pos:R:3 #=T CELL(abcABC):=T 1.889726e+02=T 90.00000=T Traj:=T positionsangstrom=T Step:=T 0=T Bead:=T pbc="F F F"
C      -48.09720000     -30.99750000     -69.56960000
C      -48.34620000     -32.20630000     -70.29400000
C      -47.95220000     -33.43380000     -69.71560000
C      -47.17600000     -33.44710000     -68.53850000
C      -46.78040000     -32.21230000     -67.96320000
C      -47.17890000     -31.00020000     -68.49150000
H      -48.51790000     -30.05760000     -69.95360000
H      -48.40310000     -34.32890000     -70.21080000
H      -46.13800000     -32.23070000     -67.14950000
H      -46.78810000     -30.11060000     -67.97550000
C      -46.67670000     -34.74300000     -67.89670000
H      -47.16220000     -35.56230000     -68.51390000
H      -47.09330000     -34.84060000     -66.85570000
C      -49.30760000     -32.12490000     -71.39350000
H      -50.29960000     -32.36470000     -71.17790000
H      -49.30150000     -31.17330000     -71.92950000
S      -44.84710000     -34.88280000     -67.88760000
S      -48.91300000     -33.40700000     -72.69740000
C      -44.23530000     -34.30200000     -69.55990000
H      -44.99550000     -33.43590000     -69.77490000
H      -43.26030000     -33.87440000     -69.40280000
C      -47.23150000     -32.76470000     -73.42000000
H      -47.28630000     -31.70050000     -73.51660000
H      -47.17720000     -33.24350000     -74.40800000
C      -46.13120000     -33.24600000     -72.54890000
H      -46.05450000     -32.75890000     -71.56140000
H      -46.22130000     -34.33320000     -72.47250000
C      -44.20940000     -35.37940000     -70.68400000
H      -45.27150000     -35.50130000     -71.02360000
H      -43.85260000     -36.32210000     -70.38410000
C      -43.33240000     -34.89030000     -71.79920000
C      -42.05560000     -35.26810000     -71.85440000
C      -43.62500000     -33.75940000     -72.67820000
H      -41.61870000     -35.95100000     -71.19850000
C      -42.45200000     -33.33430000     -73.33750000
C      -44.77420000     -33.06390000     -73.16840000
C      -44.40850000     -32.10050000     -74.13970000
S      -41.02230000     -34.22090000     -72.87960000
S      -42.68920000     -32.03800000     -74.44940000
H      -45.01970000     -31.50500000     -74.81230000
