40
Properties=species:S:1:pos:R:3 #=T CELL(abcABC):=T 1.889726e+02=T 90.00000=T Traj:=T positionsangstrom=T Step:=T 0=T Bead:=T pbc="F F F"
C      -48.35200000     -31.47170000     -69.68450000
C      -48.70590000     -32.77430000     -70.18990000
C      -48.04960000     -33.84590000     -69.65220000
C      -47.09110000     -33.74580000     -68.59910000
C      -46.75500000     -32.41410000     -68.11360000
C      -47.41840000     -31.35260000     -68.65230000
H      -48.91170000     -30.65370000     -70.13250000
H      -48.12550000     -34.83540000     -70.23000000
H      -45.91510000     -32.25480000     -67.42350000
H      -47.22650000     -30.28990000     -68.31370000
C      -46.48670000     -34.98700000     -68.06310000
H      -46.70220000     -35.83130000     -68.78470000
H      -46.96060000     -35.22450000     -67.11460000
C      -49.61020000     -32.84440000     -71.40930000
H      -50.49430000     -33.40040000     -71.21980000
H      -50.09260000     -31.87160000     -71.62570000
S      -44.66240000     -34.90850000     -67.65450000
S      -48.93030000     -33.57690000     -72.91930000
C      -43.91930000     -34.08480000     -69.10350000
H      -44.36860000     -33.06820000     -69.18610000
H      -42.92770000     -33.73880000     -68.88010000
C      -47.36040000     -32.72430000     -73.16100000
H      -47.56200000     -31.67050000     -72.91080000
H      -47.07110000     -32.68950000     -74.24630000
C      -46.11510000     -33.26050000     -72.39030000
H      -46.07340000     -32.77800000     -71.42230000
H      -46.12000000     -34.31760000     -72.11170000
C      -43.86220000     -34.90900000     -70.43140000
H      -44.86630000     -35.03340000     -70.83800000
H      -43.38650000     -35.83720000     -70.17700000
C      -42.97360000     -34.17210000     -71.48550000
C      -41.69500000     -34.39020000     -71.56600000
C      -43.51970000     -33.42410000     -72.61700000
H      -41.09220000     -34.95770000     -70.83240000
C      -42.51400000     -33.06990000     -73.48060000
C      -44.81530000     -32.96000000     -73.08220000
C      -44.70120000     -32.24930000     -74.22300000
S      -40.90130000     -33.73140000     -72.99290000
S      -43.02470000     -32.15220000     -74.84000000
H      -45.37190000     -31.71540000     -74.88170000
