40
Properties=species:S:1:pos:R:3 #=T CELL(abcABC):=T 1.889726e+02=T 90.00000=T Traj:=T positionsangstrom=T Step:=T 0=T Bead:=T pbc="F F F"
C      -42.45470000     -35.59990000     -72.29360000
C      -42.68700000     -34.37310000     -73.01330000
C      -43.81650000     -34.32060000     -73.81670000
C      -44.61330000     -35.52060000     -74.07360000
C      -44.41160000     -36.71890000     -73.30320000
C      -43.34870000     -36.65590000     -72.43240000
H      -41.58820000     -35.70860000     -71.67260000
H      -44.21330000     -33.35540000     -74.22700000
H      -45.07770000     -37.59470000     -73.34260000
H      -43.02470000     -37.58420000     -71.80710000
C      -45.76420000     -35.46140000     -75.00520000
H      -45.81050000     -36.29960000     -75.72330000
H      -45.92360000     -34.53360000     -75.56090000
C      -41.66810000     -33.26440000     -73.06510000
H      -40.71170000     -33.62270000     -73.38530000
H      -41.98740000     -32.43950000     -73.76250000
S      -47.21980000     -35.58010000     -73.88250000
S      -41.40000000     -32.49530000     -71.38870000
C      -47.01680000     -34.06380000     -72.81410000
H      -46.19520000     -33.48080000     -73.12750000
H      -47.90490000     -33.40100000     -72.87900000
C      -43.06690000     -31.73590000     -70.98870000
H      -43.47390000     -31.22670000     -71.83200000
H      -42.95870000     -30.91640000     -70.33020000
C      -43.93120000     -32.81810000     -70.26890000
H      -44.28170000     -33.50450000     -71.05360000
H      -43.42980000     -33.41950000     -69.48880000
C      -46.90310000     -34.42630000     -71.33680000
H      -45.94520000     -34.70400000     -71.05900000
H      -47.55980000     -35.20090000     -71.10760000
C      -47.34520000     -33.27970000     -70.44920000
C      -48.69550000     -32.97390000     -70.34420000
C      -46.47700000     -32.42200000     -69.70830000
H      -49.53150000     -33.38040000     -70.85110000
C      -47.25840000     -31.62190000     -68.85260000
C      -45.06550000     -32.21790000     -69.49700000
C      -44.84930000     -31.25870000     -68.51970000
S      -49.00820000     -31.70930000     -69.15540000
S      -46.28350000     -30.46560000     -67.87150000
H      -43.91160000     -31.03320000     -68.08650000
