40
Properties=species:S:1:pos:R:3 #=T CELL(abcABC):=T 1.889726e+02=T 90.00000=T Traj:=T positionsangstrom=T Step:=T 0=T Bead:=T pbc="F F F"
C      -47.86850000     -30.66730000     -69.65300000
C      -48.29550000     -31.90340000     -70.25150000
C      -47.84790000     -33.09120000     -69.72140000
C      -47.05660000     -33.16610000     -68.60110000
C      -46.82580000     -31.97830000     -67.86980000
C      -47.21040000     -30.76630000     -68.44370000
H      -48.05810000     -29.68420000     -70.07050000
H      -48.03820000     -34.06420000     -70.20790000
H      -46.22240000     -31.96840000     -66.98280000
H      -47.04280000     -29.85090000     -67.85230000
C      -46.73110000     -34.47970000     -67.96140000
H      -47.26090000     -35.29340000     -68.54780000
H      -47.00750000     -34.55040000     -66.88410000
C      -49.28790000     -31.90900000     -71.43190000
H      -50.32610000     -31.97460000     -71.06680000
H      -49.24630000     -30.91400000     -71.90900000
S      -44.89770000     -34.95280000     -67.73480000
S      -49.04590000     -33.22930000     -72.75950000
C      -44.08850000     -34.37240000     -69.25480000
H      -44.50510000     -33.36070000     -69.49600000
H      -43.07510000     -34.39120000     -69.08070000
C      -47.33630000     -32.75440000     -73.42010000
H      -47.37370000     -31.71350000     -73.69870000
H      -47.23990000     -33.33120000     -74.34530000
C      -46.10980000     -33.25270000     -72.51080000
H      -45.92520000     -32.46960000     -71.75790000
H      -46.35160000     -34.21600000     -72.00040000
C      -44.26120000     -35.24070000     -70.49120000
H      -45.30790000     -35.24730000     -70.85480000
H      -44.05010000     -36.33410000     -70.36090000
C      -43.22820000     -34.78380000     -71.54570000
C      -41.84040000     -35.00490000     -71.50760000
C      -43.53910000     -33.98980000     -72.73510000
H      -41.34670000     -35.54440000     -70.72200000
C      -42.40310000     -33.67970000     -73.47730000
C      -44.78330000     -33.43730000     -73.24730000
C      -44.57080000     -32.64610000     -74.37310000
S      -40.90530000     -34.22010000     -72.80550000
S      -42.90200000     -32.64620000     -74.86970000
H      -45.36910000     -32.19840000     -74.98030000
