40
Properties=species:S:1:pos:R:3 #=T CELL(abcABC):=T 1.889726e+02=T 90.00000=T Traj:=T positionsangstrom=T Step:=T 0=T Bead:=T pbc="F F F"
C      -47.73860000     -30.75050000     -69.65120000
C      -48.24100000     -31.94620000     -70.19530000
C      -47.82880000     -33.16140000     -69.66540000
C      -47.01330000     -33.21590000     -68.49110000
C      -46.69330000     -31.98840000     -67.84920000
C      -47.02300000     -30.75660000     -68.45490000
H      -47.84170000     -29.86440000     -70.26380000
H      -48.22100000     -34.05150000     -70.21200000
H      -46.11780000     -32.03660000     -66.92050000
H      -46.59840000     -29.85570000     -68.02450000
C      -46.60000000     -34.49160000     -67.95270000
H      -46.82170000     -35.37060000     -68.53920000
H      -47.12560000     -34.70430000     -67.03010000
C      -49.20540000     -31.93560000     -71.47110000
H      -50.17970000     -32.14220000     -71.00910000
H      -49.22270000     -31.05680000     -72.05280000
S      -44.72650000     -34.53060000     -67.49700000
S      -49.00790000     -33.24440000     -72.71280000
C      -43.98590000     -33.90950000     -69.02130000
H      -44.51580000     -32.96040000     -69.36520000
H      -42.95420000     -33.66390000     -68.63750000
C      -47.34290000     -32.79810000     -73.39630000
H      -47.17370000     -31.71210000     -73.29650000
H      -47.40250000     -33.20860000     -74.45360000
C      -46.23930000     -33.53350000     -72.66550000
H      -46.12240000     -33.22170000     -71.62010000
H      -46.42880000     -34.65510000     -72.69230000
C      -44.06950000     -34.86460000     -70.26060000
H      -45.12680000     -34.81730000     -70.38350000
H      -43.88530000     -35.99610000     -70.00290000
C      -43.28500000     -34.51720000     -71.47940000
C      -41.96070000     -34.78320000     -71.48030000
C      -43.67160000     -33.89020000     -72.70960000
H      -41.42640000     -35.23960000     -70.58730000
C      -42.61690000     -33.71900000     -73.59100000
C      -44.89850000     -33.38960000     -73.29030000
C      -44.70290000     -32.92040000     -74.58840000
S      -41.13360000     -34.41060000     -72.96050000
S      -42.98250000     -33.07140000     -75.12140000
H      -45.41920000     -32.48520000     -75.21800000
