40
Properties=species:S:1:pos:R:3 #=T CELL(abcABC):=T 1.889726e+02=T 90.00000=T Traj:=T positionsangstrom=T Step:=T 0=T Bead:=T pbc="F F F"
C      -46.62320000     -29.99040000     -70.27900000
C      -47.58800000     -31.01650000     -70.53770000
C      -47.62730000     -32.11360000     -69.70220000
C      -46.90570000     -32.22130000     -68.51910000
C      -46.13010000     -31.09390000     -68.25760000
C      -45.95980000     -30.01990000     -69.07790000
H      -46.53880000     -29.15230000     -71.00350000
H      -48.28810000     -32.91750000     -69.87490000
H      -45.42960000     -31.11730000     -67.39810000
H      -45.22190000     -29.26600000     -68.83670000
C      -46.88830000     -33.46280000     -67.69600000
H      -47.62340000     -34.14190000     -68.03220000
H      -47.04300000     -33.19450000     -66.65990000
C      -48.36370000     -30.97450000     -71.81530000
H      -49.27090000     -30.38040000     -71.80040000
H      -47.73010000     -30.43740000     -72.56710000
S      -45.35980000     -34.49760000     -67.59500000
S      -48.81480000     -32.64250000     -72.41200000
C      -44.31080000     -34.21400000     -69.10980000
H      -43.93550000     -33.25950000     -69.14890000
H      -43.44160000     -34.94070000     -68.96770000
C      -47.23930000     -33.53410000     -72.72240000
H      -47.37920000     -33.97720000     -73.73490000
H      -47.08910000     -34.37910000     -72.06960000
C      -45.89700000     -32.73250000     -72.66470000
H      -45.98250000     -31.67070000     -73.07600000
H      -45.58610000     -32.52660000     -71.65370000
C      -44.89520000     -34.78010000     -70.37260000
H      -45.74620000     -34.16490000     -70.76130000
H      -45.20510000     -35.80550000     -70.10780000
C      -43.89390000     -35.05840000     -71.43300000
C      -42.77910000     -35.90170000     -71.31690000
C      -43.98530000     -34.50780000     -72.74130000
H      -42.56430000     -36.27030000     -70.42970000
C      -42.93810000     -34.87070000     -73.58180000
C      -44.78260000     -33.45240000     -73.30880000
C      -44.32510000     -33.10620000     -74.57620000
S      -41.79070000     -35.85950000     -72.73900000
S      -42.74420000     -33.80010000     -74.95570000
H      -44.82130000     -32.31650000     -75.09630000
