40
Properties=species:S:1:pos:R:3 #=T CELL(abcABC):=T 1.889726e+02=T 90.00000=T Traj:=T positionsangstrom=T Step:=T 0=T Bead:=T pbc="F F F"
C      -49.02420000     -31.49330000     -70.11680000
C      -48.59880000     -32.38760000     -71.12010000
C      -47.89950000     -33.56910000     -70.81770000
C      -47.53530000     -33.79670000     -69.45220000
C      -48.15620000     -33.04030000     -68.47500000
C      -48.76740000     -31.84010000     -68.77730000
H      -49.29340000     -30.47230000     -70.37370000
H      -47.60780000     -34.22870000     -71.63190000
H      -47.88370000     -33.32590000     -67.48470000
H      -49.01830000     -31.13980000     -67.97350000
C      -46.66130000     -34.95930000     -68.96680000
H      -46.24770000     -35.51980000     -69.75230000
H      -47.30510000     -35.60720000     -68.46380000
C      -48.80120000     -31.99400000     -72.57680000
H      -49.06000000     -32.76790000     -73.24200000
H      -49.74080000     -31.40200000     -72.63770000
S      -45.39530000     -34.43290000     -67.76360000
S      -47.48240000     -30.86540000     -73.30310000
C      -44.63030000     -32.91750000     -68.61510000
H      -45.20730000     -32.11640000     -68.17740000
H      -43.69990000     -32.86130000     -68.02920000
C      -46.20130000     -32.07340000     -73.77060000
H      -46.06810000     -32.09540000     -74.86820000
H      -46.48190000     -33.06760000     -73.46110000
C      -44.89250000     -31.70440000     -73.07090000
H      -44.49290000     -30.78230000     -73.46380000
H      -45.22580000     -31.36790000     -72.07230000
C      -44.43400000     -32.93840000     -70.10720000
H      -43.85900000     -32.01140000     -70.37240000
H      -45.40270000     -32.78160000     -70.56660000
C      -43.58500000     -33.94590000     -70.73880000
C      -42.94600000     -35.03380000     -70.25500000
C      -43.40840000     -33.76240000     -72.14630000
H      -43.13060000     -35.44510000     -69.28290000
C      -42.52220000     -34.68140000     -72.69230000
C      -43.88420000     -32.88820000     -73.21100000
C      -43.30170000     -33.12430000     -74.41050000
S      -42.04440000     -35.92720000     -71.49190000
S      -42.10220000     -34.41780000     -74.35290000
H      -43.72900000     -32.78050000     -75.34110000
