40
Properties=species:S:1:pos:R:3 #=T CELL(abcABC):=T 1.889726e+02=T 90.00000=T Traj:=T positionsangstrom=T Step:=T 0=T Bead:=T pbc="F F F"
C      -49.08600000     -31.46590000     -70.13540000
C      -48.64670000     -32.29770000     -71.18510000
C      -47.76590000     -33.41610000     -70.90620000
C      -47.44970000     -33.68240000     -69.57340000
C      -48.05230000     -32.93500000     -68.52860000
C      -48.91530000     -31.84470000     -68.76610000
H      -49.71540000     -30.59150000     -70.41660000
H      -47.36690000     -34.02950000     -71.71580000
H      -47.86650000     -33.32270000     -67.46580000
H      -49.46000000     -31.26210000     -68.02990000
C      -46.68620000     -34.89950000     -69.26910000
H      -46.07480000     -35.27180000     -70.12140000
H      -47.29720000     -35.71790000     -68.89220000
C      -48.81850000     -31.83210000     -72.63020000
H      -48.79940000     -32.71560000     -73.27350000
H      -49.79950000     -31.32020000     -72.76110000
S      -45.43630000     -34.67980000     -67.88700000
S      -47.40810000     -30.75110000     -73.28800000
C      -44.56890000     -33.21010000     -68.43990000
H      -45.08240000     -32.26920000     -68.03440000
H      -43.56590000     -33.23060000     -68.04190000
C      -46.13720000     -32.06110000     -73.54940000
H      -46.22770000     -32.34790000     -74.60280000
H      -46.39340000     -33.01460000     -73.06600000
C      -44.76660000     -31.62560000     -73.05830000
H      -44.26860000     -30.79440000     -73.62440000
H      -44.84750000     -31.27410000     -72.03370000
C      -44.47570000     -32.86240000     -69.94190000
H      -43.87080000     -31.98630000     -70.07700000
H      -45.40540000     -32.71780000     -70.46380000
C      -43.74050000     -33.91920000     -70.74300000
C      -43.07350000     -34.98910000     -70.22970000
C      -43.45240000     -33.79030000     -72.14630000
H      -43.09970000     -35.27320000     -69.13580000
C      -42.67950000     -34.80570000     -72.67900000
C      -43.75040000     -32.84650000     -73.20370000
C      -43.06900000     -33.05710000     -74.37830000
S      -42.11870000     -35.84880000     -71.39780000
S      -42.14180000     -34.59840000     -74.32900000
H      -43.11420000     -32.43390000     -75.23090000
