40
Properties=species:S:1:pos:R:3 #=T CELL(abcABC):=T 1.889726e+02=T 90.00000=T Traj:=T positionsangstrom=T Step:=T 0=T Bead:=T pbc="F F F"
C      -46.49990000     -30.13090000     -69.66600000
C      -47.47160000     -31.13260000     -69.69060000
C      -47.28060000     -32.32720000     -68.96730000
C      -46.11140000     -32.47880000     -68.22040000
C      -45.14240000     -31.49140000     -68.27480000
C      -45.31320000     -30.35470000     -69.02610000
H      -46.60060000     -29.19690000     -70.11430000
H      -47.97040000     -33.22370000     -69.01140000
H      -44.15320000     -31.67890000     -67.72990000
H      -44.47140000     -29.67820000     -69.22930000
C      -45.88820000     -33.82370000     -67.55170000
H      -46.56180000     -34.54920000     -67.94710000
H      -45.94300000     -33.74220000     -66.44080000
C      -48.59020000     -31.12210000     -70.66710000
H      -49.67260000     -30.95080000     -70.33140000
H      -48.41130000     -30.23910000     -71.36190000
S      -44.07930000     -34.42340000     -67.89210000
S      -48.73550000     -32.65120000     -71.74140000
C      -44.03170000     -34.24210000     -69.76300000
H      -44.45270000     -33.26020000     -70.07600000
H      -43.05980000     -34.51350000     -70.06580000
C      -47.33120000     -32.35590000     -72.74800000
H      -47.39180000     -31.39810000     -73.18530000
H      -47.42040000     -32.96620000     -73.64680000
C      -45.97150000     -32.48630000     -72.09170000
H      -45.63910000     -31.52570000     -71.71550000
H      -46.01570000     -33.11480000     -71.18770000
C      -44.94620000     -35.24830000     -70.50960000
H      -46.01720000     -34.96010000     -70.35390000
H      -44.84340000     -36.23770000     -70.12060000
C      -44.44380000     -35.34030000     -71.93880000
C      -43.90410000     -36.54320000     -72.42460000
C      -44.23930000     -34.25850000     -72.85360000
H      -44.02920000     -37.53820000     -72.04750000
C      -43.41470000     -34.63680000     -73.90810000
C      -44.88440000     -32.98980000     -73.02330000
C      -44.48480000     -32.36950000     -74.17300000
S      -43.13020000     -36.36600000     -73.91210000
S      -43.25380000     -33.24540000     -75.05310000
H      -44.77610000     -31.41140000     -74.50300000
