40
Properties=species:S:1:pos:R:3 #=T CELL(abcABC):=T 1.889726e+02=T 90.00000=T Traj:=T positionsangstrom=T Step:=T 0=T Bead:=T pbc="F F F"
C      -46.67810000     -29.93720000     -69.65350000
C      -47.54410000     -31.00510000     -69.75990000
C      -47.33100000     -32.16150000     -69.04100000
C      -46.14150000     -32.33440000     -68.33050000
C      -45.30030000     -31.21080000     -68.22420000
C      -45.57290000     -30.04420000     -68.88660000
H      -46.89990000     -28.99900000     -70.15150000
H      -48.11660000     -32.92720000     -69.01800000
H      -44.34820000     -31.31760000     -67.67870000
H      -44.93400000     -29.14530000     -68.77670000
C      -45.91830000     -33.56020000     -67.49660000
H      -46.85650000     -34.13950000     -67.45920000
H      -45.78550000     -33.14790000     -66.45200000
C      -48.68360000     -30.94050000     -70.76990000
H      -49.66010000     -30.79330000     -70.22550000
H      -48.57950000     -29.99270000     -71.33260000
S      -44.54960000     -34.71580000     -67.83870000
S      -48.73850000     -32.47770000     -71.81640000
C      -44.08540000     -34.68910000     -69.59380000
H      -44.01040000     -33.64530000     -69.98600000
H      -43.16920000     -35.24460000     -69.57680000
C      -47.21130000     -32.66220000     -72.83770000
H      -47.27130000     -32.08250000     -73.73950000
H      -47.37940000     -33.65840000     -73.19990000
C      -45.83680000     -32.52640000     -72.12460000
H      -45.59870000     -31.57690000     -71.71980000
H      -45.79920000     -33.21560000     -71.27250000
C      -45.05650000     -35.34830000     -70.62250000
H      -45.93000000     -34.78360000     -70.63830000
H      -45.36300000     -36.33390000     -70.35000000
C      -44.36080000     -35.39700000     -71.97220000
C      -43.62500000     -36.50060000     -72.30300000
C      -44.24880000     -34.39360000     -72.94300000
H      -43.48090000     -37.35720000     -71.68900000
C      -43.36130000     -34.68660000     -73.95410000
C      -44.78210000     -33.07100000     -73.01890000
C      -44.33010000     -32.40900000     -74.14100000
S      -42.75540000     -36.30620000     -73.85910000
S      -43.09870000     -33.36670000     -75.05690000
H      -44.63490000     -31.50230000     -74.59150000
