40
Properties=species:S:1:pos:R:3 #=T CELL(abcABC):=T 1.889726e+02=T 90.00000=T Traj:=T positionsangstrom=T Step:=T 0=T Bead:=T pbc="F F F"
C      -48.41660000     -34.52830000     -72.38710000
C      -47.34670000     -35.06680000     -73.11540000
C      -46.45110000     -35.99450000     -72.43590000
C      -46.50330000     -36.20290000     -71.09090000
C      -47.64270000     -35.69040000     -70.39450000
C      -48.57730000     -34.87480000     -71.04120000
H      -49.10320000     -33.75020000     -72.88150000
H      -45.69120000     -36.46470000     -73.10050000
H      -47.65440000     -35.83260000     -69.33370000
H      -49.40150000     -34.39520000     -70.48010000
C      -45.45810000     -37.03030000     -70.45100000
H      -44.45400000     -37.05140000     -70.94650000
H      -45.85850000     -38.07920000     -70.30310000
C      -47.13020000     -34.97450000     -74.59650000
H      -47.34650000     -36.01510000     -74.93130000
H      -47.82350000     -34.27520000     -74.97750000
S      -44.92960000     -36.45940000     -68.77570000
S      -45.39360000     -34.60320000     -75.08540000
C      -44.92070000     -34.57840000     -68.90520000
H      -45.86270000     -34.26110000     -69.41890000
H      -45.00780000     -34.21190000     -67.86250000
C      -45.12820000     -32.99660000     -74.32210000
H      -46.08530000     -32.43270000     -74.35440000
H      -44.41400000     -32.51700000     -75.08950000
C      -44.61330000     -33.09040000     -72.84870000
H      -45.40570000     -33.64740000     -72.29330000
H      -43.69410000     -33.72230000     -72.79610000
C      -43.59100000     -34.03410000     -69.59640000
H      -43.47450000     -34.49700000     -70.62350000
H      -42.74840000     -34.34940000     -69.03630000
C      -43.72190000     -32.47370000     -69.66440000
C      -43.39300000     -31.80250000     -68.53260000
C      -44.20530000     -31.63680000     -70.73540000
H      -43.07870000     -32.07960000     -67.55430000
C      -44.38130000     -30.34030000     -70.31700000
C      -44.48680000     -31.78810000     -72.18920000
C      -44.85130000     -30.62850000     -72.76920000
S      -44.00380000     -30.06290000     -68.67000000
S      -44.71250000     -29.28860000     -71.70930000
H      -45.03310000     -30.54520000     -73.82470000
