40
Properties=species:S:1:pos:R:3 #=T CELL(abcABC):=T 1.889726e+02=T 90.00000=T Traj:=T positionsangstrom=T Step:=T 0=T Bead:=T pbc="F F F"
C      -48.76600000     -35.53390000     -72.35300000
C      -47.53270000     -35.28480000     -73.02370000
C      -46.42980000     -35.91360000     -72.53570000
C      -46.43820000     -36.64370000     -71.32720000
C      -47.61990000     -36.82870000     -70.58950000
C      -48.78970000     -36.29420000     -71.17410000
H      -49.70200000     -35.13850000     -72.77320000
H      -45.50380000     -35.70910000     -73.06440000
H      -47.75800000     -37.37490000     -69.61930000
H      -49.74820000     -36.55090000     -70.68410000
C      -45.17620000     -37.18930000     -70.79670000
H      -44.46080000     -37.10420000     -71.60230000
H      -45.42380000     -38.26800000     -70.66460000
C      -47.56470000     -34.36050000     -74.18440000
H      -48.11530000     -34.76700000     -74.97700000
H      -48.03860000     -33.40170000     -73.90160000
S      -44.77030000     -36.55060000     -69.15650000
S      -45.93610000     -33.97220000     -75.01860000
C      -45.16230000     -34.68940000     -69.30240000
H      -46.02050000     -34.61200000     -69.97650000
H      -45.42170000     -34.36500000     -68.25560000
C      -45.29230000     -32.49380000     -74.24530000
H      -46.14030000     -31.77800000     -74.22410000
H      -44.65890000     -32.09700000     -75.03960000
C      -44.72280000     -32.78350000     -72.88420000
H      -45.37810000     -33.56250000     -72.37640000
H      -43.76710000     -33.27930000     -73.08940000
C      -43.92650000     -33.94350000     -69.86310000
H      -43.68780000     -34.10620000     -70.93650000
H      -43.04320000     -34.39100000     -69.40080000
C      -43.89720000     -32.48270000     -69.54710000
C      -43.60260000     -31.86030000     -68.36790000
C      -44.02980000     -31.48600000     -70.67090000
H      -43.46130000     -32.35970000     -67.43580000
C      -43.95470000     -30.17420000     -70.15530000
C      -44.45290000     -31.50960000     -72.07580000
C      -44.59990000     -30.24150000     -72.60660000
S      -43.60670000     -30.12220000     -68.43500000
S      -44.20850000     -29.00440000     -71.45500000
H      -44.71240000     -29.98000000     -73.67260000
