40
Properties=species:S:1:pos:R:3 #=T CELL(abcABC):=T 1.889726e+02=T 90.00000=T Traj:=T positionsangstrom=T Step:=T 0=T Bead:=T pbc="F F F"
C      -48.63040000     -34.93260000     -72.33880000
C      -47.42770000     -35.20750000     -73.04960000
C      -46.36640000     -35.80990000     -72.38700000
C      -46.58280000     -36.45930000     -71.15400000
C      -47.81280000     -36.32370000     -70.54190000
C      -48.83270000     -35.55460000     -71.06200000
H      -49.48830000     -34.53780000     -72.88480000
H      -45.41840000     -35.91720000     -72.88850000
H      -48.00030000     -36.90080000     -69.66740000
H      -49.77570000     -35.38530000     -70.48510000
C      -45.46920000     -37.19830000     -70.51850000
H      -44.62050000     -37.34920000     -71.22880000
H      -45.69010000     -38.23940000     -70.24700000
C      -47.33400000     -34.58890000     -74.49970000
H      -47.72710000     -35.20670000     -75.32490000
H      -47.84140000     -33.61650000     -74.56580000
S      -44.84110000     -36.52270000     -68.90690000
S      -45.53760000     -34.31060000     -75.04810000
C      -44.97490000     -34.64690000     -69.04170000
H      -45.98330000     -34.32250000     -69.46770000
H      -45.06070000     -34.31110000     -68.03940000
C      -44.96690000     -32.74830000     -74.37390000
H      -45.78640000     -32.02200000     -74.42930000
H      -44.09780000     -32.38050000     -74.99010000
C      -44.55490000     -32.91880000     -72.94960000
H      -45.28330000     -33.54660000     -72.35190000
H      -43.71280000     -33.60360000     -72.94460000
C      -43.84180000     -34.04570000     -69.81320000
H      -43.96670000     -34.28300000     -70.83260000
H      -42.85230000     -34.40760000     -69.51050000
C      -43.84400000     -32.50360000     -69.60050000
C      -43.59400000     -31.76110000     -68.46040000
C      -44.13150000     -31.59190000     -70.70050000
H      -43.44600000     -32.29610000     -67.50960000
C      -44.07420000     -30.24730000     -70.29050000
C      -44.40040000     -31.67430000     -72.13550000
C      -44.61230000     -30.43860000     -72.76080000
S      -43.88470000     -30.02160000     -68.57720000
S      -44.48930000     -29.20060000     -71.56020000
H      -44.97110000     -30.24910000     -73.75310000
