40
Properties=species:S:1:pos:R:3 #=T CELL(abcABC):=T 1.889726e+02=T 90.00000=T Traj:=T positionsangstrom=T Step:=T 0=T Bead:=T pbc="F F F"
C      -48.53190000     -34.86190000     -72.43390000
C      -47.35470000     -35.21310000     -73.14870000
C      -46.40180000     -35.95590000     -72.46090000
C      -46.57740000     -36.22610000     -71.05100000
C      -47.69520000     -35.84160000     -70.36580000
C      -48.69070000     -35.16200000     -71.07030000
H      -49.25460000     -34.27750000     -72.93200000
H      -45.49340000     -36.22170000     -72.95500000
H      -47.81480000     -36.08930000     -69.33510000
H      -49.62860000     -34.92000000     -70.63300000
C      -45.46970000     -37.06840000     -70.44000000
H      -44.71510000     -37.19760000     -71.19330000
H      -46.02130000     -37.99670000     -70.27840000
C      -47.19000000     -34.65750000     -74.52880000
H      -47.75920000     -35.22890000     -75.21010000
H      -47.77330000     -33.70430000     -74.50350000
S      -44.93570000     -36.43980000     -68.77310000
S      -45.54250000     -34.51080000     -75.28390000
C      -44.92470000     -34.67860000     -68.98940000
H      -45.72380000     -34.30250000     -69.54410000
H      -44.94860000     -34.25970000     -67.96060000
C      -44.92940000     -32.91310000     -74.36140000
H      -45.69620000     -32.16620000     -74.47290000
H      -44.10790000     -32.63400000     -74.96860000
C      -44.43890000     -33.06860000     -72.91290000
H      -45.13230000     -33.69680000     -72.42450000
H      -43.42390000     -33.55740000     -72.88240000
C      -43.66270000     -34.00600000     -69.63650000
H      -43.42160000     -34.45260000     -70.57200000
H      -42.76610000     -34.28960000     -69.00430000
C      -43.85190000     -32.49000000     -69.68330000
C      -43.74410000     -31.86890000     -68.45800000
C      -44.17310000     -31.66690000     -70.75030000
H      -43.42280000     -32.32080000     -67.53230000
C      -44.26610000     -30.32550000     -70.29890000
C      -44.37420000     -31.71850000     -72.20900000
C      -44.75610000     -30.48580000     -72.72640000
S      -43.83320000     -30.10770000     -68.58320000
S      -44.65600000     -29.19160000     -71.53830000
H      -44.77820000     -30.35100000     -73.79610000
