40
Properties=species:S:1:pos:R:3 #=T CELL(abcABC):=T 1.889726e+02=T 90.00000=T Traj:=T positionsangstrom=T Step:=T 0=T Bead:=T pbc="F F F"
C      -42.35900000     -35.44820000     -72.22380000
C      -43.35500000     -35.09660000     -73.20000000
C      -44.58650000     -35.76040000     -73.10870000
C      -44.92480000     -36.63120000     -72.06540000
C      -43.96180000     -36.88270000     -71.08550000
C      -42.71190000     -36.25160000     -71.16100000
H      -41.27450000     -35.18800000     -72.31550000
H      -45.35330000     -35.61470000     -73.87830000
H      -44.14610000     -37.53080000     -70.20890000
H      -41.95010000     -36.55340000     -70.45900000
C      -46.23190000     -37.32350000     -72.07470000
H      -46.01130000     -38.41540000     -72.24620000
H      -46.82960000     -37.13270000     -72.95660000
C      -42.98760000     -34.32840000     -74.46680000
H      -42.14840000     -34.72700000     -75.02960000
H      -43.86820000     -34.11710000     -75.06770000
S      -47.22810000     -37.07080000     -70.56960000
S      -42.31750000     -32.63450000     -74.08290000
C      -47.57530000     -35.27460000     -70.53750000
H      -48.12970000     -34.94070000     -71.42360000
H      -48.30070000     -35.24970000     -69.80200000
C      -43.79490000     -31.56980000     -73.51330000
H      -44.62450000     -31.86930000     -74.07380000
H      -43.43460000     -30.59840000     -73.63960000
C      -44.06240000     -31.99150000     -72.04220000
H      -44.25700000     -33.06570000     -72.14890000
H      -43.18000000     -31.97670000     -71.43060000
C      -46.33660000     -34.32140000     -70.20080000
H      -45.71110000     -34.28890000     -71.09180000
H      -45.62310000     -34.72300000     -69.48230000
C      -46.67360000     -32.90050000     -69.82940000
C      -47.63830000     -32.63200000     -68.84350000
C      -45.99600000     -31.67700000     -70.28610000
H      -48.26170000     -33.31850000     -68.30010000
C      -46.67550000     -30.58570000     -69.68600000
C      -45.13950000     -31.19500000     -71.33810000
C      -45.10940000     -29.82380000     -71.42490000
S      -47.86750000     -30.95580000     -68.50670000
S      -46.09580000     -29.00460000     -70.26510000
H      -44.32650000     -29.24680000     -72.02440000
