40
Properties=species:S:1:pos:R:3 #=T CELL(abcABC):=T 1.889726e+02=T 90.00000=T Traj:=T positionsangstrom=T Step:=T 0=T Bead:=T pbc="F F F"
C      -42.40830000     -35.44070000     -72.18940000
C      -43.26760000     -35.12610000     -73.22450000
C      -44.58330000     -35.72850000     -73.18310000
C      -44.94610000     -36.66760000     -72.23540000
C      -44.00630000     -36.99340000     -71.22170000
C      -42.75170000     -36.43770000     -71.24540000
H      -41.51960000     -34.85700000     -72.02660000
H      -45.39810000     -35.60740000     -73.94390000
H      -44.28910000     -37.68060000     -70.36120000
H      -42.14070000     -36.79760000     -70.43640000
C      -46.36540000     -37.30840000     -72.23680000
H      -46.35250000     -38.35960000     -72.31160000
H      -46.99940000     -36.87430000     -73.01200000
C      -43.01500000     -34.17980000     -74.40540000
H      -42.29910000     -34.65560000     -74.99200000
H      -43.87560000     -34.27690000     -75.13030000
S      -47.31380000     -36.94750000     -70.61340000
S      -42.28630000     -32.54420000     -74.07460000
C      -47.41930000     -35.05230000     -70.67080000
H      -47.59550000     -34.59020000     -71.65050000
H      -48.16450000     -34.73550000     -69.95010000
C      -43.51410000     -31.59120000     -73.21690000
H      -44.36670000     -31.32140000     -73.91940000
H      -43.06610000     -30.56990000     -73.13830000
C      -44.04770000     -32.12020000     -71.87050000
H      -44.42830000     -33.20530000     -71.95100000
H      -43.15920000     -32.19660000     -71.19800000
C      -46.06990000     -34.30580000     -70.20050000
H      -45.39610000     -34.20470000     -71.08480000
H      -45.60960000     -34.87930000     -69.39410000
C      -46.45790000     -32.92110000     -69.68850000
C      -47.43210000     -32.78870000     -68.70220000
C      -46.06090000     -31.65550000     -70.23960000
H      -47.85450000     -33.55660000     -68.05510000
C      -46.84760000     -30.63490000     -69.72360000
C      -45.03150000     -31.16410000     -71.14130000
C      -45.03410000     -29.80020000     -71.35620000
S      -47.86970000     -31.08560000     -68.43280000
S      -46.37150000     -29.03420000     -70.45310000
H      -44.60740000     -29.26280000     -72.26510000
