40
Properties=species:S:1:pos:R:3 #=T CELL(abcABC):=T 1.889726e+02=T 90.00000=T Traj:=T positionsangstrom=T Step:=T 0=T Bead:=T pbc="F F F"
C      -42.31790000     -35.01280000     -72.57730000
C      -43.41580000     -34.99660000     -73.47160000
C      -44.50440000     -35.81060000     -73.16550000
C      -44.57780000     -36.55940000     -71.97990000
C      -43.46010000     -36.56610000     -71.10890000
C      -42.33890000     -35.75120000     -71.40870000
H      -41.43530000     -34.38490000     -72.79710000
H      -45.30860000     -35.78240000     -73.85030000
H      -43.42370000     -37.13310000     -70.15000000
H      -41.51770000     -35.67870000     -70.63940000
C      -45.84800000     -37.29720000     -71.58340000
H      -45.82070000     -38.39000000     -71.73380000
H      -46.65490000     -36.90650000     -72.22950000
C      -43.46160000     -34.27450000     -74.76230000
H      -42.61860000     -34.58040000     -75.49120000
H      -44.41130000     -34.45650000     -75.29600000
S      -46.44410000     -36.90900000     -69.81080000
S      -43.28980000     -32.40290000     -74.68570000
C      -46.03430000     -35.09600000     -69.83770000
H      -46.08670000     -34.77570000     -68.77660000
H      -44.96600000     -34.92570000     -70.08160000
C      -44.59170000     -32.28990000     -73.38440000
H      -45.38180000     -33.03130000     -73.64770000
H      -45.11240000     -31.32610000     -73.59570000
C      -44.15440000     -32.49000000     -71.81390000
H      -44.44140000     -33.54730000     -71.63030000
H      -43.05830000     -32.55130000     -71.65850000
C      -46.87380000     -34.35580000     -70.79850000
H      -47.82860000     -34.87140000     -70.65200000
H      -46.52320000     -34.43520000     -71.82800000
C      -47.11210000     -32.89610000     -70.28630000
C      -48.28980000     -32.63580000     -69.66270000
C      -46.20460000     -31.75030000     -70.33340000
H      -49.08320000     -33.33420000     -69.67020000
C      -46.77560000     -30.62370000     -69.69650000
C      -44.88920000     -31.46710000     -70.95610000
C      -44.59810000     -30.15760000     -70.78490000
S      -48.29820000     -30.97500000     -68.92430000
S      -45.72840000     -29.21180000     -69.82460000
H      -43.76750000     -29.74410000     -71.29700000
