40
Properties=species:S:1:pos:R:3 #=T CELL(abcABC):=T 1.889726e+02=T 90.00000=T Traj:=T positionsangstrom=T Step:=T 0=T Bead:=T pbc="F F F"
C      -42.26350000     -35.40390000     -73.45730000
C      -43.67320000     -35.27890000     -73.67170000
C      -44.58120000     -35.99150000     -72.84350000
C      -44.10100000     -36.77020000     -71.76590000
C      -42.77110000     -36.88270000     -71.55520000
C      -41.89150000     -36.25040000     -72.41270000
H      -41.52810000     -34.94900000     -74.08520000
H      -45.65090000     -35.96000000     -73.00160000
H      -42.47090000     -37.54280000     -70.75040000
H      -40.81920000     -36.42050000     -72.16410000
C      -45.02780000     -37.33250000     -70.73590000
H      -44.84870000     -38.36780000     -70.49940000
H      -46.12070000     -37.12820000     -71.02200000
C      -44.32640000     -34.61100000     -74.87020000
H      -43.88850000     -34.89470000     -75.80460000
H      -45.36240000     -34.92260000     -74.89130000
S      -44.82830000     -36.48870000     -69.11880000
S      -44.21870000     -32.67960000     -74.94050000
C      -45.02950000     -34.68210000     -69.48900000
H      -44.98800000     -34.26140000     -68.48540000
H      -44.20270000     -34.22280000     -70.12130000
C      -45.39650000     -32.00850000     -73.74690000
H      -46.37150000     -32.51270000     -73.81900000
H      -45.56990000     -30.95170000     -73.92150000
C      -44.83140000     -32.17720000     -72.33720000
H      -44.98800000     -33.25680000     -72.06580000
H      -43.78230000     -31.99210000     -72.30690000
C      -46.34360000     -34.21960000     -70.18980000
H      -47.10120000     -34.92440000     -69.93150000
H      -46.08000000     -34.22460000     -71.25110000
C      -46.92420000     -32.88760000     -69.79050000
C      -47.96420000     -32.79830000     -68.91190000
C      -46.45670000     -31.63620000     -70.31950000
H      -48.45880000     -33.65670000     -68.37390000
C      -47.03970000     -30.53730000     -69.68440000
C      -45.50280000     -31.25970000     -71.27870000
C      -45.29290000     -29.90980000     -71.34320000
S      -48.38690000     -31.07020000     -68.67200000
S      -46.35730000     -29.04110000     -70.23580000
H      -44.60020000     -29.40580000     -71.94610000
