40
Properties=species:S:1:pos:R:3 #=T CELL(abcABC):=T 1.889726e+02=T 90.00000=T Traj:=T positionsangstrom=T Step:=T 0=T Bead:=T pbc="F F F"
C      -42.37350000     -35.24530000     -73.80090000
C      -43.78340000     -35.29260000     -74.01200000
C      -44.61250000     -35.97360000     -73.09900000
C      -44.12040000     -36.39610000     -71.86080000
C      -42.74380000     -36.29020000     -71.60060000
C      -41.84810000     -35.70020000     -72.56940000
H      -41.77490000     -34.72860000     -74.48660000
H      -45.71980000     -36.08490000     -73.30060000
H      -42.27630000     -36.54800000     -70.62960000
H      -40.89640000     -35.38230000     -72.32630000
C      -45.10410000     -37.07960000     -70.94580000
H      -44.91690000     -38.15060000     -71.06220000
H      -46.06720000     -36.79530000     -71.29340000
C      -44.39810000     -34.45830000     -75.08900000
H      -43.98650000     -34.67130000     -76.13140000
H      -45.47940000     -34.54260000     -75.21300000
S      -45.23770000     -36.61800000     -69.12770000
S      -44.01640000     -32.64940000     -74.74500000
C      -45.47230000     -34.77590000     -69.06640000
H      -45.97950000     -34.52160000     -68.13780000
H      -44.48370000     -34.37480000     -69.21320000
C      -44.95230000     -32.41450000     -73.19300000
H      -45.59950000     -33.31920000     -73.13300000
H      -45.59790000     -31.60340000     -73.34930000
C      -44.27310000     -32.25930000     -71.84860000
H      -44.14290000     -33.22100000     -71.29450000
H      -43.23710000     -31.83100000     -71.92500000
C      -46.32640000     -34.36040000     -70.27150000
H      -47.18830000     -35.09440000     -70.41100000
H      -45.76040000     -34.28270000     -71.15070000
C      -47.02610000     -33.03260000     -70.02970000
C      -48.25130000     -32.86900000     -69.40230000
C      -46.36010000     -31.75260000     -70.28840000
H      -48.97810000     -33.65020000     -69.31000000
C      -47.03130000     -30.68430000     -69.71730000
C      -45.17860000     -31.34520000     -71.03030000
C      -45.00780000     -29.98830000     -71.00290000
S      -48.49500000     -31.18660000     -68.85720000
S      -46.26980000     -29.13470000     -70.10100000
H      -44.10000000     -29.52850000     -71.35130000
