40
Properties=species:S:1:pos:R:3 #=T CELL(abcABC):=T 1.889726e+02=T 90.00000=T Traj:=T positionsangstrom=T Step:=T 0=T Bead:=T pbc="F F F"
C      -42.39990000     -35.20900000     -73.46630000
C      -43.82630000     -35.30410000     -73.82940000
C      -44.74710000     -35.91610000     -72.91860000
C      -44.23810000     -36.57720000     -71.79150000
C      -42.82500000     -36.68690000     -71.59160000
C      -41.91570000     -35.95590000     -72.40170000
H      -41.78880000     -34.61090000     -74.15080000
H      -45.80160000     -35.92200000     -73.01310000
H      -42.45190000     -37.25340000     -70.70940000
H      -40.83280000     -35.92370000     -72.15500000
C      -45.22140000     -37.20350000     -70.85210000
H      -45.10600000     -38.25680000     -70.68000000
H      -46.18580000     -37.08030000     -71.25350000
C      -44.33280000     -34.55260000     -75.02440000
H      -43.79890000     -34.87910000     -75.91980000
H      -45.43690000     -34.79770000     -75.27850000
S      -44.88300000     -36.51060000     -69.09330000
S      -44.13140000     -32.72150000     -75.02470000
C      -45.06230000     -34.65330000     -69.46110000
H      -44.79440000     -34.13220000     -68.55850000
H      -44.35680000     -34.47070000     -70.21950000
C      -45.14810000     -32.22980000     -73.48360000
H      -46.02150000     -32.89450000     -73.42750000
H      -45.44690000     -31.20110000     -73.74620000
C      -44.42210000     -32.22960000     -72.08800000
H      -44.24290000     -33.24840000     -71.68770000
H      -43.45880000     -31.73110000     -72.23760000
C      -46.48260000     -34.37810000     -69.97250000
H      -47.21840000     -35.02060000     -69.46540000
H      -46.59910000     -34.64090000     -71.07750000
C      -46.94150000     -32.97110000     -69.77900000
C      -48.13300000     -32.75240000     -69.11080000
C      -46.35420000     -31.73110000     -70.30600000
H      -48.74070000     -33.51650000     -68.56650000
C      -47.01390000     -30.64900000     -69.74730000
C      -45.27780000     -31.29830000     -71.18750000
C      -45.16880000     -29.91470000     -71.24000000
S      -48.45230000     -31.08280000     -68.78720000
S      -46.29410000     -29.14170000     -70.13450000
H      -44.39850000     -29.44310000     -71.80220000
