40
Properties=species:S:1:pos:R:3 #=T CELL(abcABC):=T 1.889726e+02=T 90.00000=T Traj:=T positionsangstrom=T Step:=T 0=T Bead:=T pbc="F F F"
C      -42.59250000     -35.30200000     -73.75650000
C      -43.97450000     -35.29730000     -73.91490000
C      -44.84670000     -35.87150000     -72.97890000
C      -44.23290000     -36.40270000     -71.86270000
C      -42.86160000     -36.20860000     -71.52830000
C      -42.06070000     -35.66870000     -72.50180000
H      -41.94020000     -34.89080000     -74.49850000
H      -45.90420000     -35.81380000     -73.16660000
H      -42.58670000     -36.58940000     -70.55720000
H      -40.98370000     -35.71530000     -72.36700000
C      -45.11240000     -37.16170000     -70.88170000
H      -44.77970000     -38.26000000     -70.83260000
H      -46.18820000     -37.21630000     -71.22880000
C      -44.34270000     -34.50990000     -75.14770000
H      -43.69960000     -34.86060000     -75.94150000
H      -45.38180000     -34.55640000     -75.28750000
S      -44.95780000     -36.57810000     -69.17670000
S      -44.00250000     -32.70510000     -74.71450000
C      -45.46210000     -34.84130000     -69.30740000
H      -45.75280000     -34.46170000     -68.30680000
H      -44.46040000     -34.34500000     -69.46690000
C      -45.07630000     -32.40300000     -73.32120000
H      -45.78330000     -33.23250000     -73.27880000
H      -45.78180000     -31.53900000     -73.54790000
C      -44.24640000     -32.15190000     -71.99370000
H      -43.91140000     -33.08850000     -71.64530000
H      -43.30100000     -31.64020000     -72.25100000
C      -46.56180000     -34.41910000     -70.29340000
H      -47.40160000     -35.14670000     -70.14440000
H      -46.33880000     -34.56090000     -71.30650000
C      -46.95060000     -33.02670000     -69.90910000
C      -48.04060000     -32.82800000     -69.07230000
C      -46.31910000     -31.78860000     -70.32800000
H      -48.60610000     -33.56540000     -68.54260000
C      -47.00920000     -30.71010000     -69.82860000
C      -45.10180000     -31.33220000     -71.04410000
C      -44.96160000     -29.97280000     -70.95730000
S      -48.40110000     -31.11240000     -68.85180000
S      -46.30020000     -29.18440000     -70.16150000
H      -44.15030000     -29.39250000     -71.39400000
