40
Properties=species:S:1:pos:R:3 #=T CELL(abcABC):=T 1.889726e+02=T 90.00000=T Traj:=T positionsangstrom=T Step:=T 0=T Bead:=T pbc="F F F"
C      -42.35040000     -35.52460000     -73.66370000
C      -43.70510000     -35.28760000     -73.79340000
C      -44.52960000     -35.84240000     -72.72030000
C      -43.97230000     -36.57680000     -71.64730000
C      -42.56460000     -36.84720000     -71.62090000
C      -41.78430000     -36.30050000     -72.62060000
H      -41.63070000     -35.13950000     -74.45070000
H      -45.65540000     -35.75620000     -72.76310000
H      -42.08560000     -37.40050000     -70.82670000
H      -40.69920000     -36.32290000     -72.61170000
C      -44.95760000     -37.20020000     -70.66030000
H      -44.69450000     -38.22690000     -70.47970000
H      -45.98200000     -37.27880000     -71.00660000
C      -44.40100000     -34.62050000     -74.99200000
H      -43.95000000     -35.07090000     -75.97870000
H      -45.49170000     -34.85490000     -74.96260000
S      -44.88090000     -36.37440000     -68.95880000
S      -44.16170000     -32.80420000     -75.05710000
C      -45.27770000     -34.60280000     -69.45570000
H      -45.10050000     -34.08070000     -68.52170000
H      -44.50330000     -34.20870000     -70.08190000
C      -45.26710000     -32.20070000     -73.71350000
H      -46.20240000     -32.85770000     -73.76860000
H      -45.68800000     -31.25870000     -74.10460000
C      -44.68770000     -32.04950000     -72.33970000
H      -44.46810000     -33.06740000     -71.93820000
H      -43.72420000     -31.51590000     -72.36200000
C      -46.61990000     -34.37280000     -70.09730000
H      -47.40160000     -35.06710000     -69.76090000
H      -46.50310000     -34.58310000     -71.18420000
C      -47.01940000     -32.95970000     -69.83890000
C      -47.84160000     -32.72070000     -68.77690000
C      -46.52230000     -31.72260000     -70.46110000
H      -48.15340000     -33.52650000     -68.09610000
C      -47.02380000     -30.64610000     -69.69560000
C      -45.60310000     -31.25160000     -71.40990000
C      -45.48880000     -29.88730000     -71.43100000
S      -48.09780000     -31.03030000     -68.45250000
S      -46.57750000     -29.08130000     -70.28070000
H      -44.85630000     -29.32500000     -72.11220000
