40
Properties=species:S:1:pos:R:3 #=T CELL(abcABC):=T 1.889726e+02=T 90.00000=T Traj:=T positionsangstrom=T Step:=T 0=T Bead:=T pbc="F F F"
C      -42.52780000     -35.20860000     -73.82630000
C      -43.90330000     -35.32180000     -73.84350000
C      -44.60090000     -35.85550000     -72.73440000
C      -43.93910000     -36.25310000     -71.56030000
C      -42.47790000     -36.16920000     -71.62920000
C      -41.81410000     -35.63880000     -72.71360000
H      -42.07880000     -34.88390000     -74.72780000
H      -45.64390000     -35.94280000     -72.76360000
H      -41.90150000     -36.68790000     -70.78460000
H      -40.74750000     -35.62580000     -72.69810000
C      -44.66550000     -36.98430000     -70.43670000
H      -44.39290000     -38.02730000     -70.50090000
H      -45.78840000     -36.97130000     -70.62100000
C      -44.71590000     -34.95090000     -75.06980000
H      -44.32720000     -35.43820000     -75.95130000
H      -45.76590000     -35.21220000     -74.98890000
S      -44.26080000     -36.30240000     -68.70970000
S      -44.52820000     -33.09770000     -75.32440000
C      -44.82730000     -34.59230000     -68.95090000
H      -44.78830000     -33.99400000     -68.00830000
H      -43.95700000     -34.12020000     -69.43720000
C      -45.64130000     -32.37870000     -74.05360000
H      -46.60710000     -32.92790000     -74.07420000
H      -45.83660000     -31.31600000     -74.37540000
C      -45.14000000     -32.37800000     -72.58400000
H      -45.16440000     -33.38920000     -72.26360000
H      -44.10150000     -31.98430000     -72.48860000
C      -46.11110000     -34.33570000     -69.71050000
H      -46.84510000     -35.08540000     -69.50800000
H      -45.81610000     -34.40960000     -70.73910000
C      -46.67410000     -32.96560000     -69.47020000
C      -47.30330000     -32.64050000     -68.33000000
C      -46.63930000     -31.81370000     -70.37250000
H      -47.53560000     -33.36340000     -67.59930000
C      -47.15270000     -30.72540000     -69.79100000
C      -45.99130000     -31.47350000     -71.64580000
C      -46.03760000     -30.12620000     -71.91990000
S      -47.83160000     -30.96360000     -68.18760000
S      -46.88700000     -29.24310000     -70.66090000
H      -45.67610000     -29.64620000     -72.75960000
