40
Properties=species:S:1:pos:R:3 #=T CELL(abcABC):=T 1.889726e+02=T 90.00000=T Traj:=T positionsangstrom=T Step:=T 0=T Bead:=T pbc="F F F"
C      -47.96890000     -36.73630000     -70.05510000
C      -46.86740000     -36.55600000     -70.86140000
C      -45.64940000     -36.09240000     -70.36430000
C      -45.49760000     -36.04460000     -68.97760000
C      -46.58860000     -36.20330000     -68.14860000
C      -47.83700000     -36.57970000     -68.68930000
H      -48.88550000     -37.06870000     -70.52830000
H      -44.69100000     -35.97080000     -70.90100000
H      -46.45010000     -35.89570000     -67.08870000
H      -48.64860000     -36.82450000     -68.08960000
C      -44.19600000     -35.53880000     -68.39270000
H      -43.35700000     -35.63440000     -69.16780000
H      -43.85210000     -36.03320000     -67.44980000
C      -47.00470000     -36.81400000     -72.34550000
H      -47.19460000     -37.90500000     -72.52400000
H      -47.83400000     -36.14360000     -72.76220000
S      -44.28470000     -33.79360000     -67.74530000
S      -45.43270000     -36.50230000     -73.36490000
C      -44.75400000     -32.76190000     -69.25190000
H      -45.77410000     -33.03280000     -69.59100000
H      -44.83030000     -31.78400000     -68.73660000
C      -45.59730000     -34.82240000     -74.00230000
H      -46.67740000     -34.79130000     -74.32740000
H      -44.99610000     -34.71040000     -74.88490000
C      -45.09020000     -33.79060000     -72.94440000
H      -45.38620000     -33.92660000     -71.90820000
H      -43.95450000     -33.89500000     -72.86100000
C      -43.63920000     -32.52030000     -70.29150000
H      -43.60700000     -33.34370000     -70.92480000
H      -42.63100000     -32.46290000     -69.78390000
C      -43.90270000     -31.26560000     -71.19670000
C      -43.53670000     -30.02480000     -70.73840000
C      -44.67160000     -31.28780000     -72.42270000
H      -42.83650000     -30.04040000     -69.85230000
C      -44.93640000     -29.98360000     -72.76210000
C      -45.25340000     -32.33680000     -73.21680000
C      -46.05060000     -31.77480000     -74.21530000
S      -44.17840000     -28.72480000     -71.72120000
S      -45.93750000     -30.00750000     -74.26840000
H      -46.45210000     -32.21720000     -75.11280000
