40
Properties=species:S:1:pos:R:3 #=T CELL(abcABC):=T 1.889726e+02=T 90.00000=T Traj:=T positionsangstrom=T Step:=T 0=T Bead:=T pbc="F F F"
C      -42.55040000     -35.56810000     -74.05140000
C      -43.95680000     -35.42380000     -73.86910000
C      -44.56080000     -36.06200000     -72.80190000
C      -43.87140000     -36.65930000     -71.75210000
C      -42.37640000     -36.67640000     -71.83240000
C      -41.78090000     -36.10960000     -72.94890000
H      -42.08060000     -34.92170000     -74.81220000
H      -45.62070000     -35.98980000     -72.60650000
H      -41.81350000     -37.12190000     -71.02670000
H      -40.72700000     -36.04070000     -73.16050000
C      -44.58040000     -37.14780000     -70.49310000
H      -44.14830000     -38.13300000     -70.30130000
H      -45.63950000     -37.17170000     -70.48860000
C      -44.72770000     -34.87190000     -75.01060000
H      -44.24360000     -35.23850000     -76.00920000
H      -45.76220000     -35.24540000     -74.91060000
S      -44.22740000     -36.13280000     -68.99450000
S      -44.75310000     -33.08770000     -75.15380000
C      -44.79260000     -34.42280000     -69.42050000
H      -44.52100000     -33.90540000     -68.48660000
H      -44.11360000     -33.94110000     -70.20210000
C      -45.91830000     -32.53740000     -73.93130000
H      -46.69900000     -33.24980000     -73.87310000
H      -46.30810000     -31.56910000     -74.19340000
C      -45.31020000     -32.28760000     -72.47230000
H      -45.25220000     -33.17450000     -71.90060000
H      -44.25730000     -31.94540000     -72.72920000
C      -46.31130000     -34.25870000     -69.75730000
H      -46.91270000     -34.94890000     -69.21700000
H      -46.45630000     -34.46730000     -70.79260000
C      -46.66280000     -32.83780000     -69.41050000
C      -47.16350000     -32.57560000     -68.16160000
C      -46.56260000     -31.66390000     -70.27810000
H      -47.14060000     -33.25990000     -67.37200000
C      -46.94420000     -30.52400000     -69.53580000
C      -46.04600000     -31.32320000     -71.59750000
C      -46.19540000     -29.94850000     -71.85890000
S      -47.46470000     -30.85590000     -67.95480000
S      -46.98680000     -29.09890000     -70.55980000
H      -45.90260000     -29.47780000     -72.74470000
