40
Properties=species:S:1:pos:R:3 #=T CELL(abcABC):=T 1.889726e+02=T 90.00000=T Traj:=T positionsangstrom=T Step:=T 0=T Bead:=T pbc="F F F"
C      -42.69730000     -35.01410000     -73.82780000
C      -43.99420000     -35.38410000     -73.89000000
C      -44.60030000     -36.02990000     -72.80670000
C      -43.85150000     -36.51290000     -71.71860000
C      -42.49000000     -36.27000000     -71.73400000
C      -41.90290000     -35.51400000     -72.79770000
H      -42.30480000     -34.39290000     -74.63640000
H      -45.71070000     -36.15810000     -72.79820000
H      -41.87710000     -36.45640000     -70.88840000
H      -40.82920000     -35.31260000     -72.86530000
C      -44.54030000     -37.15200000     -70.48770000
H      -44.27840000     -38.21610000     -70.29340000
H      -45.64580000     -37.08340000     -70.61500000
C      -44.80010000     -34.88440000     -75.07410000
H      -44.33880000     -35.30130000     -75.95820000
H      -45.82280000     -35.09450000     -75.07080000
S      -44.12210000     -36.40240000     -68.84240000
S      -44.73670000     -33.07310000     -75.36510000
C      -44.66030000     -34.63220000     -68.97850000
H      -44.57170000     -34.24660000     -67.99470000
H      -43.87780000     -34.09060000     -69.54940000
C      -45.83290000     -32.45660000     -73.97420000
H      -46.82570000     -32.99060000     -73.89410000
H      -45.97750000     -31.39090000     -74.24080000
C      -45.29000000     -32.49920000     -72.51050000
H      -45.31160000     -33.46160000     -72.00910000
H      -44.23820000     -32.19720000     -72.39120000
C      -46.07110000     -34.23680000     -69.61000000
H      -46.83180000     -35.00160000     -69.28250000
H      -45.95790000     -34.49020000     -70.69180000
C      -46.59530000     -32.87250000     -69.32100000
C      -47.25920000     -32.53540000     -68.14580000
C      -46.47480000     -31.73740000     -70.20730000
H      -47.59670000     -33.19700000     -67.32600000
C      -47.05460000     -30.54450000     -69.65680000
C      -45.98390000     -31.53270000     -71.55700000
C      -46.18150000     -30.25830000     -72.02530000
S      -47.68730000     -30.82950000     -68.07360000
S      -46.88850000     -29.21170000     -70.74540000
H      -45.90020000     -29.76540000     -73.00590000
