40
Properties=species:S:1:pos:R:3 #=T CELL(abcABC):=T 1.889726e+02=T 90.00000=T Traj:=T positionsangstrom=T Step:=T 0=T Bead:=T pbc="F F F"
C      -42.46800000     -35.33110000     -73.85250000
C      -43.93500000     -35.37530000     -73.81490000
C      -44.57650000     -36.02660000     -72.76210000
C      -43.92820000     -36.65400000     -71.70280000
C      -42.52970000     -36.59680000     -71.78210000
C      -41.81120000     -35.96010000     -72.78090000
H      -41.96170000     -35.08370000     -74.80600000
H      -45.67350000     -36.17020000     -72.72860000
H      -42.02750000     -36.99480000     -70.86100000
H      -40.70840000     -35.88000000     -72.76490000
C      -44.60620000     -37.19750000     -70.51050000
H      -44.26690000     -38.23960000     -70.46070000
H      -45.72980000     -37.18050000     -70.59080000
C      -44.68210000     -34.86690000     -75.03850000
H      -44.26100000     -35.19060000     -75.93870000
H      -45.74300000     -35.34430000     -75.01260000
S      -44.19730000     -36.11340000     -68.97520000
S      -44.81030000     -33.05570000     -75.25110000
C      -44.65550000     -34.45720000     -69.55560000
H      -44.28000000     -33.83580000     -68.72380000
H      -44.10460000     -34.20350000     -70.43810000
C      -45.96090000     -32.54560000     -73.81410000
H      -46.74720000     -33.30730000     -73.82560000
H      -46.47170000     -31.65810000     -74.20010000
C      -45.22930000     -32.36640000     -72.53320000
H      -45.04130000     -33.35910000     -71.98810000
H      -44.29170000     -31.86840000     -72.73960000
C      -46.17120000     -34.22000000     -69.75030000
H      -46.71590000     -34.98480000     -69.11000000
H      -46.45320000     -34.40450000     -70.84000000
C      -46.63010000     -32.83170000     -69.34220000
C      -47.26140000     -32.59550000     -68.16220000
C      -46.53290000     -31.67640000     -70.22080000
H      -47.09570000     -33.23510000     -67.27090000
C      -47.00790000     -30.56690000     -69.59710000
C      -46.05270000     -31.45570000     -71.59820000
C      -46.27660000     -30.16060000     -71.94790000
S      -47.50070000     -30.84920000     -67.94320000
S      -46.92200000     -29.13490000     -70.63650000
H      -46.03540000     -29.72900000     -72.94920000
