40
Properties=species:S:1:pos:R:3 #=T CELL(abcABC):=T 1.889726e+02=T 90.00000=T Traj:=T positionsangstrom=T Step:=T 0=T Bead:=T pbc="F F F"
C      -42.60650000     -35.29370000     -73.95280000
C      -44.01050000     -35.40150000     -73.88270000
C      -44.56330000     -35.93460000     -72.77290000
C      -43.79690000     -36.38690000     -71.61520000
C      -42.43590000     -36.04060000     -71.63160000
C      -41.84520000     -35.47550000     -72.81180000
H      -42.15890000     -34.96150000     -74.86030000
H      -45.66610000     -36.08300000     -72.88790000
H      -41.82370000     -36.25320000     -70.75540000
H      -40.82660000     -35.14550000     -72.76030000
C      -44.47270000     -37.13130000     -70.43880000
H      -44.08580000     -38.11760000     -70.30030000
H      -45.53880000     -37.17990000     -70.66100000
C      -44.88170000     -34.85870000     -74.96650000
H      -44.51310000     -35.38920000     -75.96800000
H      -45.92820000     -35.17900000     -74.87740000
S      -44.20450000     -36.31430000     -68.83940000
S      -44.65820000     -33.00530000     -75.22150000
C      -44.79700000     -34.53750000     -68.79900000
H      -45.04690000     -34.41250000     -67.74920000
H      -44.07620000     -33.80020000     -69.19340000
C      -45.88660000     -32.32300000     -73.97620000
H      -46.87050000     -32.76000000     -74.14930000
H      -45.99760000     -31.33410000     -74.32810000
C      -45.27330000     -32.44590000     -72.55980000
H      -45.50190000     -33.48450000     -72.23320000
H      -44.18080000     -32.37260000     -72.68660000
C      -46.10220000     -34.36960000     -69.57070000
H      -46.89590000     -34.98170000     -69.07320000
H      -46.15150000     -34.70040000     -70.60150000
C      -46.52950000     -32.94830000     -69.39530000
C      -47.24500000     -32.63450000     -68.25670000
C      -46.41540000     -31.81370000     -70.30440000
H      -47.38820000     -33.30510000     -67.48040000
C      -47.02940000     -30.68730000     -69.74050000
C      -45.90200000     -31.48630000     -71.63980000
C      -46.12500000     -30.15970000     -71.99510000
S      -47.70260000     -30.95010000     -68.19700000
S      -46.98360000     -29.29430000     -70.77690000
H      -45.92060000     -29.53250000     -72.84420000
