40
Properties=species:S:1:pos:R:3 #=T CELL(abcABC):=T 1.889726e+02=T 90.00000=T Traj:=T positionsangstrom=T Step:=T 0=T Bead:=T pbc="F F F"
C      -43.22920000     -35.14040000     -74.07070000
C      -44.58230000     -35.24200000     -73.81630000
C      -44.90190000     -36.04880000     -72.72770000
C      -43.98830000     -36.61420000     -71.83540000
C      -42.64560000     -36.29980000     -71.93500000
C      -42.27180000     -35.67730000     -73.14200000
H      -42.95340000     -34.68470000     -74.98370000
H      -45.94570000     -36.29990000     -72.65130000
H      -41.83570000     -36.57330000     -71.24970000
H      -41.17420000     -35.63740000     -73.33000000
C      -44.59340000     -37.23790000     -70.65130000
H      -44.17110000     -38.24370000     -70.59860000
H      -45.66630000     -37.39320000     -70.86470000
C      -45.63980000     -34.75320000     -74.83730000
H      -45.36170000     -35.18830000     -75.77650000
H      -46.70110000     -35.07390000     -74.61370000
S      -44.24290000     -36.36300000     -69.08320000
S      -45.60040000     -32.89620000     -75.09700000
C      -44.50410000     -34.62720000     -69.54710000
H      -44.33620000     -33.93230000     -68.71290000
H      -43.83280000     -34.37640000     -70.40720000
C      -46.24670000     -32.35790000     -73.44580000
H      -46.89610000     -33.17500000     -72.98450000
H      -46.83750000     -31.41430000     -73.45800000
C      -44.96510000     -32.11010000     -72.66470000
H      -44.53170000     -33.00470000     -72.22070000
H      -44.21280000     -31.70730000     -73.25850000
C      -45.88220000     -34.41920000     -70.14170000
H      -46.59900000     -35.16210000     -69.81070000
H      -45.80760000     -34.52260000     -71.29260000
C      -46.40400000     -33.05340000     -69.69820000
C      -47.01010000     -32.94920000     -68.44210000
C      -46.15410000     -31.72510000     -70.31710000
H      -47.25200000     -33.76780000     -67.81500000
C      -46.59900000     -30.66000000     -69.50660000
C      -45.36430000     -31.24170000     -71.46220000
C      -45.44810000     -29.88880000     -71.60870000
S      -47.26840000     -31.19000000     -68.00990000
S      -46.22590000     -29.05710000     -70.17340000
H      -45.07970000     -29.26940000     -72.38370000
