40
Properties=species:S:1:pos:R:3 #=T CELL(abcABC):=T 1.889726e+02=T 90.00000=T Traj:=T positionsangstrom=T Step:=T 0=T Bead:=T pbc="F F F"
C      -48.95560000     -30.98960000     -69.74330000
C      -48.55710000     -31.76060000     -70.88400000
C      -48.13420000     -33.07540000     -70.69270000
C      -48.02130000     -33.69710000     -69.45200000
C      -48.33350000     -32.92590000     -68.33930000
C      -48.84610000     -31.64000000     -68.53130000
H      -49.17460000     -29.93680000     -69.80010000
H      -47.88890000     -33.71010000     -71.57790000
H      -48.17450000     -33.34690000     -67.30740000
H      -49.25130000     -31.05740000     -67.69360000
C      -47.40920000     -35.02790000     -69.40040000
H      -47.39010000     -35.41740000     -70.50450000
H      -48.02410000     -35.82030000     -68.81500000
C      -48.59510000     -31.09850000     -72.25410000
H      -48.99320000     -31.68990000     -73.16880000
H      -49.28850000     -30.24050000     -72.21930000
S      -45.76240000     -35.21460000     -68.53390000
S      -46.93870000     -30.44960000     -72.66720000
C      -44.94230000     -33.56730000     -68.62860000
H      -45.61330000     -32.79070000     -68.22120000
H      -44.04680000     -33.49450000     -67.99530000
C      -46.00080000     -31.90760000     -73.21160000
H      -46.13960000     -32.21000000     -74.25480000
H      -46.26530000     -32.78680000     -72.69430000
C      -44.52500000     -31.61770000     -73.08020000
H      -44.30510000     -30.88970000     -73.95740000
H      -44.31100000     -31.07920000     -72.10770000
C      -44.53450000     -33.18320000     -70.08630000
H      -44.03880000     -32.21040000     -69.93380000
H      -45.38970000     -32.97890000     -70.79950000
C      -43.64820000     -34.11670000     -70.85010000
C      -42.95230000     -35.25740000     -70.40890000
C      -43.36350000     -33.92280000     -72.26540000
H      -43.26190000     -35.69150000     -69.41250000
C      -42.47670000     -34.84430000     -72.79150000
C      -43.65030000     -32.87900000     -73.28480000
C      -43.07980000     -33.16560000     -74.51080000
S      -42.00290000     -36.04400000     -71.61830000
S      -41.98390000     -34.54620000     -74.47700000
H      -43.34470000     -32.54370000     -75.27240000
