40
Properties=species:S:1:pos:R:3 #=T CELL(abcABC):=T 1.889726e+02=T 90.00000=T Traj:=T positionsangstrom=T Step:=T 0=T Bead:=T pbc="F F F"
C      -43.05660000     -35.56370000     -74.24100000
C      -44.47650000     -35.48530000     -74.00140000
C      -44.95970000     -36.03620000     -72.78270000
C      -44.06110000     -36.52870000     -71.80720000
C      -42.68680000     -36.73930000     -72.20010000
C      -42.20020000     -36.12870000     -73.33630000
H      -42.72260000     -35.28010000     -75.21520000
H      -46.00550000     -35.98910000     -72.49440000
H      -41.93240000     -37.11490000     -71.38680000
H      -41.14410000     -36.13370000     -73.51490000
C      -44.56150000     -36.99960000     -70.51380000
H      -44.31580000     -38.06900000     -70.41950000
H      -45.61940000     -36.98220000     -70.48570000
C      -45.37900000     -34.81810000     -75.05540000
H      -45.06480000     -35.15050000     -76.04370000
H      -46.39500000     -34.89080000     -74.95070000
S      -43.76740000     -36.08610000     -69.09340000
S      -44.97300000     -32.94220000     -75.09230000
C      -44.31430000     -34.39350000     -69.28140000
H      -44.29170000     -33.71370000     -68.39650000
H      -43.72870000     -33.95750000     -70.05380000
C      -45.67550000     -32.36460000     -73.53300000
H      -46.37110000     -33.06640000     -73.10380000
H      -46.28050000     -31.46660000     -73.68250000
C      -44.74210000     -31.99990000     -72.32590000
H      -44.21820000     -32.89870000     -71.97230000
H      -43.94790000     -31.34630000     -72.61730000
C      -45.76720000     -34.21750000     -69.79640000
H      -46.44250000     -34.93440000     -69.34220000
H      -45.75660000     -34.38020000     -70.86740000
C      -46.48390000     -32.93570000     -69.44410000
C      -47.43640000     -32.80760000     -68.48400000
C      -46.30430000     -31.70040000     -70.16510000
H      -47.88720000     -33.65360000     -68.01770000
C      -47.05180000     -30.68350000     -69.59510000
C      -45.42840000     -31.24020000     -71.20640000
C      -45.59800000     -29.91200000     -71.43970000
S      -48.04880000     -31.20780000     -68.23850000
S      -46.70530000     -29.11400000     -70.23070000
H      -45.01610000     -29.30660000     -72.21380000
