40
Properties=species:S:1:pos:R:3 #=T CELL(abcABC):=T 1.889726e+02=T 90.00000=T Traj:=T positionsangstrom=T Step:=T 0=T Bead:=T pbc="F F F"
C      -43.24910000     -35.32470000     -74.24880000
C      -44.60580000     -35.47410000     -73.85050000
C      -44.88920000     -36.13550000     -72.65090000
C      -43.83900000     -36.69560000     -71.83480000
C      -42.52010000     -36.64110000     -72.28490000
C      -42.23720000     -35.90970000     -73.51180000
H      -43.00670000     -34.97510000     -75.25660000
H      -45.88970000     -36.34480000     -72.30900000
H      -41.74850000     -36.92100000     -71.71760000
H      -41.16850000     -35.85850000     -73.77590000
C      -44.34880000     -37.33230000     -70.56060000
H      -43.85530000     -38.24560000     -70.26580000
H      -45.42410000     -37.71390000     -70.69250000
C      -45.64670000     -34.89600000     -74.70530000
H      -45.55410000     -35.37850000     -75.70090000
H      -46.66780000     -35.07770000     -74.29080000
S      -44.04950000     -36.09530000     -69.23270000
S      -45.35830000     -33.08160000     -75.14780000
C      -44.64070000     -34.46190000     -69.78600000
H      -44.37610000     -33.77100000     -68.93700000
H      -44.20840000     -34.20100000     -70.72980000
C      -45.90320000     -32.20530000     -73.59800000
H      -46.70930000     -32.80010000     -73.13680000
H      -46.37020000     -31.21840000     -73.87140000
C      -44.84290000     -32.03420000     -72.47560000
H      -44.46350000     -32.97400000     -72.29190000
H      -44.03840000     -31.42250000     -72.78370000
C      -46.17750000     -34.30650000     -69.98880000
H      -46.76690000     -35.01450000     -69.45440000
H      -46.41270000     -34.38380000     -71.05390000
C      -46.66800000     -32.96270000     -69.59350000
C      -47.37460000     -32.77720000     -68.39560000
C      -46.25670000     -31.69950000     -70.16810000
H      -47.96680000     -33.57990000     -67.91710000
C      -46.64540000     -30.59550000     -69.39010000
C      -45.44330000     -31.28110000     -71.27280000
C      -45.33230000     -29.91150000     -71.32020000
S      -47.60830000     -31.09200000     -68.02310000
S      -46.24160000     -29.01770000     -70.04410000
H      -44.84310000     -29.40630000     -72.09110000
