40
Properties=species:S:1:pos:R:3 #=T CELL(abcABC):=T 1.889726e+02=T 90.00000=T Traj:=T positionsangstrom=T Step:=T 0=T Bead:=T pbc="F F F"
C      -43.10860000     -35.50240000     -74.30700000
C      -44.41340000     -35.45190000     -73.94580000
C      -44.88710000     -36.00230000     -72.69980000
C      -43.94050000     -36.56690000     -71.84580000
C      -42.61200000     -36.71120000     -72.26600000
C      -42.17560000     -36.18840000     -73.48680000
H      -42.74880000     -34.96200000     -75.19340000
H      -45.94280000     -35.88380000     -72.34940000
H      -41.92300000     -37.20750000     -71.64050000
H      -41.15390000     -36.25480000     -73.86280000
C      -44.37820000     -37.17080000     -70.47640000
H      -43.81030000     -38.04000000     -70.28750000
H      -45.43370000     -37.45770000     -70.43290000
C      -45.49820000     -34.82690000     -74.82210000
H      -45.45730000     -35.24840000     -75.77250000
H      -46.53080000     -34.98530000     -74.43860000
S      -43.94870000     -36.12510000     -69.07030000
S      -45.33530000     -32.94140000     -75.05850000
C      -44.49000000     -34.43490000     -69.64880000
H      -44.13110000     -33.76740000     -68.89720000
H      -43.78760000     -34.13910000     -70.42380000
C      -45.88320000     -32.20170000     -73.51790000
H      -46.80190000     -32.63810000     -73.16080000
H      -46.18330000     -31.24530000     -73.83460000
C      -44.81280000     -32.14940000     -72.38760000
H      -44.53350000     -33.16770000     -72.04090000
H      -43.86940000     -31.60810000     -72.71610000
C      -46.03320000     -34.29600000     -69.99660000
H      -46.51140000     -35.08500000     -69.39430000
H      -46.19840000     -34.62320000     -70.99740000
C      -46.57220000     -32.96940000     -69.58500000
C      -47.43450000     -32.81670000     -68.51550000
C      -46.23650000     -31.69470000     -70.17040000
H      -47.56870000     -33.57520000     -67.78320000
C      -46.82630000     -30.60100000     -69.51660000
C      -45.42240000     -31.25690000     -71.25020000
C      -45.38700000     -29.88370000     -71.32140000
S      -47.79310000     -31.13570000     -68.19590000
S      -46.43210000     -29.05910000     -70.10940000
H      -44.94040000     -29.24060000     -72.01390000
