40
Properties=species:S:1:pos:R:3 #=T CELL(abcABC):=T 1.889726e+02=T 90.00000=T Traj:=T positionsangstrom=T Step:=T 0=T Bead:=T pbc="F F F"
C      -42.77260000     -34.86200000     -74.09390000
C      -44.14260000     -35.08950000     -74.18360000
C      -44.83380000     -35.83760000     -73.22200000
C      -44.15160000     -36.35770000     -72.07220000
C      -42.75820000     -36.14200000     -72.05800000
C      -42.06450000     -35.40040000     -73.01860000
H      -42.21680000     -34.26780000     -74.82830000
H      -45.85770000     -36.04190000     -73.41300000
H      -42.19440000     -36.44600000     -71.22590000
H      -40.94580000     -35.31720000     -72.98390000
C      -44.91070000     -37.17090000     -71.01430000
H      -44.40760000     -38.13990000     -71.02020000
H      -45.98170000     -37.37880000     -71.26290000
C      -44.92860000     -34.69350000     -75.37310000
H      -44.31160000     -34.38180000     -76.19260000
H      -45.58540000     -35.44420000     -75.66390000
S      -44.50870000     -36.59410000     -69.27690000
S      -46.00500000     -33.12900000     -75.14760000
C      -44.74260000     -34.74560000     -69.34540000
H      -44.38390000     -34.29390000     -68.44850000
H      -44.18080000     -34.32510000     -70.17510000
C      -46.52850000     -32.95750000     -73.33280000
H      -47.04000000     -33.95360000     -73.02290000
H      -47.35790000     -32.18840000     -73.25040000
C      -45.34550000     -32.74030000     -72.37450000
H      -45.25940000     -33.64900000     -71.73730000
H      -44.44360000     -32.67090000     -72.89740000
C      -46.29680000     -34.41650000     -69.44030000
H      -46.83980000     -34.92050000     -68.71960000
H      -46.71430000     -34.76190000     -70.39680000
C      -46.63370000     -32.86840000     -69.23730000
C      -47.16290000     -32.45470000     -68.07260000
C      -46.10390000     -31.79110000     -69.99710000
H      -47.40960000     -33.11300000     -67.26900000
C      -46.26050000     -30.51540000     -69.42280000
C      -45.47100000     -31.58330000     -71.33260000
C      -45.25280000     -30.26940000     -71.63480000
S      -47.19530000     -30.59930000     -67.91670000
S      -45.63400000     -29.18480000     -70.30090000
H      -44.71220000     -29.89380000     -72.47550000
