40
Properties=species:S:1:pos:R:3 #=T CELL(abcABC):=T 1.889726e+02=T 90.00000=T Traj:=T positionsangstrom=T Step:=T 0=T Bead:=T pbc="F F F"
C      -43.36240000     -35.85560000     -74.16170000
C      -44.75020000     -35.57490000     -73.95890000
C      -45.32480000     -36.01570000     -72.72910000
C      -44.51820000     -36.66810000     -71.82340000
C      -43.19040000     -36.94390000     -72.07020000
C      -42.59510000     -36.60820000     -73.29860000
H      -42.98380000     -35.36980000     -75.02360000
H      -46.36690000     -35.99760000     -72.55490000
H      -42.62280000     -37.59250000     -71.26080000
H      -41.53780000     -36.75930000     -73.47210000
C      -45.18240000     -37.26420000     -70.62250000
H      -44.92130000     -38.35290000     -70.50020000
H      -46.28070000     -37.25770000     -70.91520000
C      -45.65330000     -34.82360000     -74.92670000
H      -45.68770000     -35.30150000     -75.90590000
H      -46.74170000     -34.92380000     -74.65170000
S      -44.79710000     -36.49410000     -69.00900000
S      -45.25370000     -33.02770000     -75.24980000
C      -44.71470000     -34.73740000     -69.37580000
H      -44.39390000     -34.21980000     -68.41590000
H      -43.93130000     -34.53750000     -70.12870000
C      -45.84130000     -32.18350000     -73.71460000
H      -46.67590000     -32.88700000     -73.38440000
H      -46.16520000     -31.15130000     -73.98890000
C      -44.76620000     -32.04310000     -72.58010000
H      -44.54350000     -33.09440000     -72.25310000
H      -43.78020000     -31.73090000     -72.93600000
C      -46.05830000     -34.16600000     -69.89400000
H      -46.94030000     -34.71190000     -69.61380000
H      -46.07440000     -34.13090000     -70.99750000
C      -46.32070000     -32.69380000     -69.54500000
C      -46.98330000     -32.45200000     -68.33360000
C      -45.87910000     -31.53420000     -70.24020000
H      -47.37980000     -33.14670000     -67.64170000
C      -46.23100000     -30.40770000     -69.46730000
C      -45.21200000     -31.09930000     -71.46820000
C      -44.92260000     -29.74770000     -71.47600000
S      -47.13970000     -30.75100000     -68.05400000
S      -45.67940000     -28.91050000     -70.13010000
H      -44.22370000     -29.33200000     -72.19160000
