40
Properties=species:S:1:pos:R:3 #=T CELL(abcABC):=T 1.889726e+02=T 90.00000=T Traj:=T positionsangstrom=T Step:=T 0=T Bead:=T pbc="F F F"
C      -42.98920000     -35.11570000     -74.09640000
C      -44.35110000     -35.40110000     -74.20640000
C      -44.97370000     -36.14630000     -73.21710000
C      -44.27050000     -36.54820000     -72.07650000
C      -42.90960000     -36.19320000     -71.92850000
C      -42.28370000     -35.46970000     -72.95590000
H      -42.48570000     -34.56960000     -74.89650000
H      -45.97880000     -36.44150000     -73.30460000
H      -42.36000000     -36.40850000     -70.96580000
H      -41.19810000     -35.41140000     -72.86340000
C      -45.16110000     -37.07810000     -70.99030000
H      -45.04780000     -38.11650000     -70.96310000
H      -46.20760000     -36.79680000     -71.13830000
C      -45.22500000     -34.89580000     -75.30650000
H      -44.69010000     -34.86210000     -76.28770000
H      -46.14360000     -35.55110000     -75.33210000
S      -44.72560000     -36.61420000     -69.20000000
S      -45.73070000     -33.09020000     -75.11890000
C      -44.84840000     -34.69400000     -69.36780000
H      -44.73370000     -34.20240000     -68.35550000
H      -44.00860000     -34.45270000     -70.00170000
C      -46.14890000     -32.90170000     -73.33350000
H      -46.69370000     -33.78100000     -72.98120000
H      -46.91180000     -32.12920000     -73.33000000
C      -44.94230000     -32.44300000     -72.48570000
H      -44.47200000     -33.35140000     -72.03260000
H      -44.22760000     -31.93720000     -73.13480000
C      -46.21240000     -34.24650000     -69.86670000
H      -47.09600000     -34.81160000     -69.51440000
H      -46.24830000     -34.24870000     -70.99650000
C      -46.41440000     -32.87050000     -69.32230000
C      -46.96890000     -32.45260000     -68.08200000
C      -46.02670000     -31.66320000     -70.11840000
H      -47.53270000     -33.18280000     -67.48380000
C      -46.27510000     -30.49500000     -69.41450000
C      -45.41010000     -31.46660000     -71.38790000
C      -45.20190000     -30.11120000     -71.55150000
S      -46.99750000     -30.66970000     -67.86020000
S      -45.76680000     -29.06010000     -70.24950000
H      -44.69770000     -29.72570000     -72.44990000
