40
Properties=species:S:1:pos:R:3 #=T CELL(abcABC):=T 1.889726e+02=T 90.00000=T Traj:=T positionsangstrom=T Step:=T 0=T Bead:=T pbc="F F F"
C      -42.91660000     -35.08790000     -74.15540000
C      -44.33100000     -35.14630000     -74.15480000
C      -44.99410000     -35.79000000     -73.12130000
C      -44.28350000     -36.30220000     -72.03260000
C      -42.84580000     -36.13840000     -71.99530000
C      -42.19340000     -35.51170000     -73.04860000
H      -42.44540000     -34.67950000     -75.04630000
H      -46.09230000     -35.92860000     -73.17240000
H      -42.23360000     -36.43860000     -71.15320000
H      -41.21470000     -35.17400000     -72.91610000
C      -44.98740000     -37.10630000     -70.97400000
H      -44.74460000     -38.21530000     -70.96640000
H      -46.07410000     -37.10980000     -71.11310000
C      -44.94480000     -34.63860000     -75.43410000
H      -44.20380000     -34.40800000     -76.15510000
H      -45.64150000     -35.29310000     -75.98180000
S      -44.64400000     -36.50880000     -69.27430000
S      -45.87900000     -33.08220000     -75.07750000
C      -45.03560000     -34.78640000     -69.25460000
H      -44.73720000     -34.51080000     -68.23440000
H      -44.32220000     -34.31320000     -69.93050000
C      -46.21980000     -33.01470000     -73.26170000
H      -46.77770000     -33.87770000     -72.87810000
H      -46.97310000     -32.19660000     -73.28750000
C      -45.00650000     -32.65820000     -72.36790000
H      -44.74810000     -33.45030000     -71.73010000
H      -44.11990000     -32.53980000     -73.08290000
C      -46.46750000     -34.38700000     -69.65840000
H      -47.14430000     -35.02720000     -69.06670000
H      -46.64350000     -34.61210000     -70.67190000
C      -46.58390000     -32.88950000     -69.42570000
C      -47.13250000     -32.48980000     -68.21040000
C      -45.97300000     -31.74790000     -70.09140000
H      -47.87010000     -33.06840000     -67.62550000
C      -46.18980000     -30.53950000     -69.40410000
C      -45.36550000     -31.52320000     -71.36140000
C      -45.14990000     -30.17510000     -71.64450000
S      -46.91500000     -30.79560000     -67.81320000
S      -45.77310000     -29.11950000     -70.31750000
H      -44.96000000     -29.94240000     -72.63390000
