40
Properties=species:S:1:pos:R:3 #=T CELL(abcABC):=T 1.889726e+02=T 90.00000=T Traj:=T positionsangstrom=T Step:=T 0=T Bead:=T pbc="F F F"
C      -43.45490000     -35.45410000     -74.02530000
C      -44.83050000     -35.46390000     -73.85530000
C      -45.30610000     -36.22280000     -72.78690000
C      -44.41760000     -36.72280000     -71.84450000
C      -43.01890000     -36.78390000     -72.08940000
C      -42.56580000     -36.08400000     -73.17000000
H      -43.02910000     -35.01040000     -74.89700000
H      -46.39410000     -36.27600000     -72.66880000
H      -42.49080000     -37.36710000     -71.29360000
H      -41.60220000     -36.13700000     -73.56940000
C      -45.09110000     -37.43070000     -70.69560000
H      -44.62890000     -38.36660000     -70.50410000
H      -46.16890000     -37.61250000     -70.91480000
C      -45.62930000     -34.80940000     -74.91660000
H      -45.28550000     -35.20560000     -75.83580000
H      -46.67670000     -34.91920000     -74.72910000
S      -44.86680000     -36.60730000     -69.05060000
S      -45.29530000     -32.98960000     -75.07290000
C      -44.72270000     -34.78570000     -69.57810000
H      -44.34470000     -34.27160000     -68.72190000
H      -44.02410000     -34.67340000     -70.37930000
C      -45.82030000     -32.37520000     -73.47490000
H      -46.59170000     -33.06360000     -73.13090000
H      -46.33040000     -31.42260000     -73.55520000
C      -44.72200000     -32.30550000     -72.39900000
H      -44.56830000     -33.23310000     -71.96700000
H      -43.78180000     -31.86290000     -72.82000000
C      -46.08120000     -34.13020000     -69.98660000
H      -46.88530000     -34.82740000     -69.71760000
H      -46.01560000     -34.19130000     -71.03770000
C      -46.30110000     -32.70440000     -69.49810000
C      -46.91040000     -32.42080000     -68.26270000
C      -45.99420000     -31.57290000     -70.24020000
H      -47.37920000     -33.10480000     -67.61020000
C      -46.27940000     -30.36240000     -69.54860000
C      -45.16360000     -31.23470000     -71.43760000
C      -44.96020000     -29.88600000     -71.62100000
S      -47.09140000     -30.68320000     -68.06820000
S      -45.72570000     -28.91620000     -70.35130000
H      -44.40050000     -29.36350000     -72.35130000
