40
Properties=species:S:1:pos:R:3 #=T CELL(abcABC):=T 1.889726e+02=T 90.00000=T Traj:=T positionsangstrom=T Step:=T 0=T Bead:=T pbc="F F F"
C      -43.64360000     -36.05430000     -74.55250000
C      -44.86180000     -35.59290000     -74.10120000
C      -45.49540000     -36.05200000     -72.90950000
C      -44.70080000     -36.83980000     -72.03230000
C      -43.41010000     -37.28080000     -72.43240000
C      -42.90180000     -36.97550000     -73.69670000
H      -43.23840000     -35.56390000     -75.41050000
H      -46.51800000     -35.87350000     -72.65210000
H      -42.76860000     -37.81680000     -71.69290000
H      -41.89800000     -37.34510000     -73.79380000
C      -45.24900000     -37.27380000     -70.71170000
H      -44.90900000     -38.36510000     -70.55900000
H      -46.33490000     -37.17140000     -70.66030000
C      -45.64120000     -34.52110000     -74.86620000
H      -45.95510000     -34.84550000     -75.84010000
H      -46.58240000     -34.38330000     -74.31700000
S      -44.55360000     -36.43450000     -69.20440000
S      -44.77430000     -32.95240000     -75.07240000
C      -44.63210000     -34.69150000     -69.65310000
H      -44.22560000     -34.09470000     -68.79570000
H      -44.04180000     -34.47730000     -70.46590000
C      -45.45810000     -31.90460000     -73.64310000
H      -46.50870000     -32.26240000     -73.61100000
H      -45.36220000     -30.88540000     -73.96980000
C      -44.76490000     -32.16420000     -72.26310000
H      -44.89640000     -33.12090000     -71.79270000
H      -43.66730000     -32.01850000     -72.47470000
C      -46.09410000     -34.12710000     -69.83340000
H      -46.80790000     -34.73360000     -69.22860000
H      -46.39950000     -34.31280000     -70.87430000
C      -46.27940000     -32.69180000     -69.33730000
C      -46.95580000     -32.46440000     -68.18000000
C      -45.89120000     -31.47130000     -70.02870000
H      -47.33240000     -33.24260000     -67.55170000
C      -46.26820000     -30.35700000     -69.29340000
C      -45.32890000     -31.16930000     -71.26450000
C      -45.25430000     -29.79040000     -71.50140000
S      -47.08190000     -30.71670000     -67.79350000
S      -45.93130000     -28.87450000     -70.13540000
H      -44.84550000     -29.32980000     -72.36900000
