40
Properties=species:S:1:pos:R:3 #=T CELL(abcABC):=T 1.889726e+02=T 90.00000=T Traj:=T positionsangstrom=T Step:=T 0=T Bead:=T pbc="F F F"
C      -48.57270000     -30.96910000     -69.37320000
C      -48.41710000     -31.62330000     -70.57650000
C      -48.12920000     -33.02400000     -70.50760000
C      -48.14380000     -33.74690000     -69.29950000
C      -48.42850000     -33.06150000     -68.11780000
C      -48.69160000     -31.71470000     -68.17890000
H      -48.85800000     -29.93160000     -69.42460000
H      -48.00950000     -33.48320000     -71.42870000
H      -48.40760000     -33.51110000     -67.14520000
H      -48.80340000     -31.12840000     -67.27570000
C      -47.78960000     -35.25340000     -69.20770000
H      -48.10830000     -35.83810000     -70.08770000
H      -48.39820000     -35.71090000     -68.34880000
C      -48.49010000     -31.02780000     -71.96540000
H      -48.72520000     -31.83400000     -72.71460000
H      -49.28430000     -30.19950000     -72.03640000
S      -45.97140000     -35.62850000     -69.04020000
S      -46.84630000     -30.34270000     -72.54120000
C      -45.05080000     -33.94920000     -68.79920000
H      -45.74400000     -33.26240000     -68.28450000
H      -44.28890000     -34.24090000     -68.05060000
C      -45.86160000     -31.75820000     -73.18900000
H      -46.18860000     -31.79330000     -74.21890000
H      -46.22900000     -32.66730000     -72.74630000
C      -44.35910000     -31.45780000     -73.14540000
H      -44.10590000     -30.70040000     -73.90780000
H      -44.20540000     -31.03780000     -72.07840000
C      -44.53110000     -33.20450000     -70.04900000
H      -43.83410000     -32.40240000     -69.75710000
H      -45.28170000     -32.74360000     -70.66360000
C      -43.60350000     -34.05390000     -70.91790000
C      -43.00430000     -35.22920000     -70.54860000
C      -43.28840000     -33.75820000     -72.32220000
H      -43.04100000     -35.72510000     -69.57010000
C      -42.49730000     -34.69870000     -72.90960000
C      -43.54520000     -32.70710000     -73.31890000
C      -43.01000000     -32.96670000     -74.57050000
S      -42.11890000     -36.01870000     -71.78890000
S      -41.99040000     -34.42650000     -74.54080000
H      -43.07630000     -32.15890000     -75.34100000
