40
Properties=species:S:1:pos:R:3 #=T CELL(abcABC):=T 1.889726e+02=T 90.00000=T Traj:=T positionsangstrom=T Step:=T 0=T Bead:=T pbc="F F F"
C      -43.48250000     -35.86670000     -74.47600000
C      -44.73630000     -35.40920000     -74.06750000
C      -45.22170000     -35.87320000     -72.83700000
C      -44.62640000     -36.82180000     -72.07300000
C      -43.39710000     -37.25830000     -72.52570000
C      -42.84280000     -36.92420000     -73.74330000
H      -43.28280000     -35.41340000     -75.39360000
H      -46.24960000     -35.68670000     -72.55650000
H      -42.88590000     -38.01380000     -71.94810000
H      -41.80420000     -37.20650000     -73.81450000
C      -45.26170000     -37.18990000     -70.76860000
H      -45.22760000     -38.28830000     -70.69860000
H      -46.22930000     -36.70320000     -70.80660000
C      -45.46800000     -34.41190000     -74.87430000
H      -45.89940000     -34.84110000     -75.79610000
H      -46.39840000     -34.23990000     -74.33140000
S      -44.42870000     -36.55720000     -69.19250000
S      -44.70210000     -32.73610000     -75.21430000
C      -44.75350000     -34.75710000     -69.19790000
H      -44.42090000     -34.36560000     -68.31210000
H      -43.94010000     -34.31810000     -69.82380000
C      -45.39930000     -31.84280000     -73.70850000
H      -46.47450000     -31.94590000     -73.85220000
H      -45.02060000     -30.81830000     -73.80500000
C      -44.91080000     -32.32950000     -72.29160000
H      -45.33220000     -33.31760000     -72.17220000
H      -43.87520000     -32.45210000     -72.30500000
C      -46.11890000     -34.27070000     -69.57880000
H      -46.75370000     -34.95600000     -69.00610000
H      -46.39740000     -34.41990000     -70.63320000
C      -46.44360000     -32.80940000     -69.25350000
C      -47.14060000     -32.40240000     -68.10260000
C      -46.03550000     -31.64020000     -69.96460000
H      -47.56490000     -33.06410000     -67.34540000
C      -46.30190000     -30.43130000     -69.30840000
C      -45.44020000     -31.35490000     -71.27180000
C      -45.29710000     -30.05400000     -71.55690000
S      -47.21300000     -30.61600000     -67.82670000
S      -45.96280000     -28.98870000     -70.26230000
H      -45.07170000     -29.64580000     -72.58180000
