40
Properties=species:S:1:pos:R:3 #=T CELL(abcABC):=T 1.889726e+02=T 90.00000=T Traj:=T positionsangstrom=T Step:=T 0=T Bead:=T pbc="F F F"
C      -47.57240000     -31.45760000     -74.11860000
C      -47.76980000     -32.50180000     -73.20940000
C      -46.76170000     -33.53360000     -73.12120000
C      -45.66340000     -33.54600000     -74.00020000
C      -45.61980000     -32.54080000     -75.05590000
C      -46.48280000     -31.43550000     -75.01300000
H      -48.29240000     -30.59050000     -74.15750000
H      -46.85860000     -34.31510000     -72.33090000
H      -44.78580000     -32.68310000     -75.76710000
H      -46.55320000     -30.67410000     -75.73860000
C      -44.76360000     -34.78490000     -73.97060000
H      -44.45580000     -35.05530000     -74.99890000
H      -45.32920000     -35.63490000     -73.52680000
C      -49.02140000     -32.56920000     -72.35040000
H      -49.54880000     -31.63550000     -72.54440000
H      -49.60620000     -33.42030000     -72.69040000
S      -43.21560000     -34.68640000     -73.00330000
S      -48.83150000     -32.89580000     -70.57260000
C      -42.64320000     -32.82910000     -73.07480000
H      -41.51540000     -32.85000000     -73.10770000
H      -42.92210000     -32.28630000     -74.00280000
C      -47.67860000     -31.41810000     -70.15460000
H      -47.89400000     -31.11040000     -69.14240000
H      -48.01710000     -30.69280000     -70.84940000
C      -46.16910000     -31.64630000     -70.39290000
H      -46.01630000     -31.76600000     -71.50370000
H      -45.66200000     -30.69880000     -70.08960000
C      -43.02240000     -32.06890000     -71.75730000
H      -43.94540000     -31.52220000     -71.86890000
H      -42.16250000     -31.38270000     -71.52530000
C      -43.02480000     -33.04160000     -70.57000000
C      -42.01360000     -33.93030000     -70.24010000
C      -44.22200000     -33.44340000     -69.80530000
H      -41.03350000     -33.99610000     -70.76080000
C      -44.08930000     -34.48290000     -68.96480000
C      -45.54170000     -32.81230000     -69.62890000
C      -46.30130000     -33.46850000     -68.65490000
S      -42.49950000     -35.23350000     -69.14530000
S      -45.41820000     -34.76300000     -67.84590000
H      -47.39000000     -33.17110000     -68.51360000
