40
Properties=species:S:1:pos:R:3 #=T CELL(abcABC):=T 1.889726e+02=T 90.00000=T Traj:=T positionsangstrom=T Step:=T 0=T Bead:=T pbc="F F F"
C      -42.81510000     -34.25910000     -74.21030000
C      -44.08820000     -34.86820000     -74.28820000
C      -44.51080000     -35.85460000     -73.35610000
C      -43.73650000     -36.21920000     -72.25080000
C      -42.51950000     -35.53030000     -72.11180000
C      -42.07500000     -34.66430000     -73.10270000
H      -42.44640000     -33.48930000     -74.89120000
H      -45.32750000     -36.50360000     -73.54590000
H      -41.80860000     -35.67010000     -71.26700000
H      -41.08560000     -34.22060000     -72.89750000
C      -44.30450000     -37.27980000     -71.26480000
H      -43.55750000     -38.15810000     -71.29460000
H      -45.32750000     -37.71500000     -71.50790000
C      -45.04100000     -34.46390000     -75.35970000
H      -44.70580000     -34.42540000     -76.40620000
H      -45.86870000     -35.18190000     -75.28260000
S      -44.35980000     -36.69830000     -69.52200000
S      -45.72870000     -32.71060000     -75.10230000
C      -44.72300000     -34.92440000     -69.56490000
H      -44.64660000     -34.70880000     -68.49900000
H      -44.05580000     -34.32930000     -70.24250000
C      -46.37420000     -32.59240000     -73.37480000
H      -46.95270000     -33.51840000     -73.13330000
H      -47.18130000     -31.82550000     -73.40240000
C      -45.26050000     -32.28310000     -72.38150000
H      -44.79850000     -33.18480000     -71.95820000
H      -44.52230000     -31.72850000     -72.87260000
C      -46.17660000     -34.59990000     -70.13030000
H      -46.88340000     -35.24510000     -69.67870000
H      -46.34190000     -34.66100000     -71.25530000
C      -46.51200000     -33.23800000     -69.50990000
C      -47.05950000     -33.17500000     -68.26510000
C      -46.33650000     -31.90870000     -70.02200000
H      -47.37080000     -34.00540000     -67.74910000
C      -46.67280000     -30.90200000     -69.13950000
C      -45.79320000     -31.46310000     -71.23270000
C      -45.69780000     -30.08500000     -71.22040000
S      -47.26320000     -31.48570000     -67.59230000
S      -46.28440000     -29.30670000     -69.74780000
H      -45.55460000     -29.42110000     -72.07120000
