40
Properties=species:S:1:pos:R:3 #=T CELL(abcABC):=T 1.889726e+02=T 90.00000=T Traj:=T positionsangstrom=T Step:=T 0=T Bead:=T pbc="F F F"
C      -48.56420000     -31.01360000     -69.40610000
C      -48.24120000     -31.67880000     -70.60430000
C      -48.01650000     -33.06390000     -70.41880000
C      -48.05130000     -33.73180000     -69.17910000
C      -48.31330000     -32.98790000     -68.05210000
C      -48.62820000     -31.65970000     -68.18850000
H      -48.72400000     -29.91560000     -69.42030000
H      -47.73830000     -33.63070000     -71.30060000
H      -48.36800000     -33.45500000     -67.07840000
H      -48.89450000     -31.09850000     -67.29010000
C      -47.89550000     -35.25330000     -69.08490000
H      -48.34420000     -35.78000000     -69.94660000
H      -48.31530000     -35.65150000     -68.12400000
C      -48.39810000     -31.02380000     -71.94800000
H      -48.83580000     -31.73850000     -72.57010000
H      -49.06890000     -30.15370000     -71.80790000
S      -46.08430000     -35.70850000     -69.32800000
S      -46.83850000     -30.22040000     -72.56990000
C      -45.09070000     -34.17580000     -68.85890000
H      -45.68110000     -33.59270000     -68.19440000
H      -44.23060000     -34.55320000     -68.28880000
C      -45.90450000     -31.75330000     -72.99450000
H      -46.21220000     -32.07700000     -73.98590000
H      -46.15650000     -32.61090000     -72.33220000
C      -44.37570000     -31.44880000     -72.87590000
H      -44.17160000     -30.65050000     -73.62350000
H      -44.12310000     -31.11370000     -71.89490000
C      -44.66490000     -33.37850000     -70.12200000
H      -44.29060000     -32.38710000     -69.82160000
H      -45.69570000     -33.21680000     -70.60300000
C      -43.70940000     -34.16770000     -70.94560000
C      -43.08830000     -35.33500000     -70.59680000
C      -43.31410000     -33.76520000     -72.29220000
H      -43.14900000     -35.97440000     -69.76050000
C      -42.43210000     -34.63800000     -72.91780000
C      -43.55380000     -32.66390000     -73.19340000
C      -42.96670000     -32.83090000     -74.42400000
S      -42.01650000     -35.96860000     -71.86100000
S      -42.04960000     -34.33790000     -74.54170000
H      -43.06340000     -32.17270000     -75.30140000
