40
Properties=species:S:1:pos:R:3 #=T CELL(abcABC):=T 1.889726e+02=T 90.00000=T Traj:=T positionsangstrom=T Step:=T 0=T Bead:=T pbc="F F F"
C      -42.90490000     -34.31970000     -74.01770000
C      -44.24750000     -34.84340000     -74.07970000
C      -44.71940000     -35.74740000     -73.09140000
C      -43.84060000     -36.19430000     -72.08160000
C      -42.53050000     -35.71600000     -72.05230000
C      -42.08470000     -34.78480000     -73.00760000
H      -42.47350000     -33.69920000     -74.78670000
H      -45.78490000     -35.98130000     -72.95010000
H      -41.81090000     -36.07780000     -71.30840000
H      -41.01340000     -34.49530000     -73.09040000
C      -44.36580000     -37.27270000     -71.17730000
H      -43.76030000     -38.17010000     -71.23750000
H      -45.31550000     -37.39630000     -71.58790000
C      -45.05870000     -34.48210000     -75.31830000
H      -44.43860000     -34.49870000     -76.26900000
H      -45.81630000     -35.22260000     -75.47580000
S      -44.35780000     -36.77640000     -69.44870000
S      -45.75640000     -32.77150000     -75.31410000
C      -44.71880000     -35.02230000     -69.47620000
H      -44.67900000     -34.58390000     -68.50750000
H      -43.99910000     -34.36730000     -69.97770000
C      -46.27550000     -32.53880000     -73.54610000
H      -46.79390000     -33.46040000     -73.22320000
H      -46.99670000     -31.76450000     -73.64900000
C      -45.19860000     -32.15770000     -72.55480000
H      -44.59100000     -33.07190000     -72.41780000
H      -44.56600000     -31.39190000     -73.01090000
C      -46.08770000     -34.64000000     -70.01630000
H      -46.86160000     -35.39160000     -69.73420000
H      -46.06810000     -34.65900000     -71.10600000
C      -46.50920000     -33.21700000     -69.46280000
C      -47.09640000     -33.05610000     -68.22440000
C      -46.17540000     -31.93520000     -70.03010000
H      -47.63840000     -33.77510000     -67.64040000
C      -46.55710000     -30.85410000     -69.16030000
C      -45.70060000     -31.44980000     -71.32040000
C      -45.67120000     -30.05030000     -71.32530000
S      -47.27390000     -31.39710000     -67.69220000
S      -46.25170000     -29.28240000     -69.82240000
H      -45.16260000     -29.50590000     -72.07840000
