40
Properties=species:S:1:pos:R:3 #=T CELL(abcABC):=T 1.889726e+02=T 90.00000=T Traj:=T positionsangstrom=T Step:=T 0=T Bead:=T pbc="F F F"
C      -43.00100000     -34.59790000     -74.52280000
C      -44.36140000     -34.88760000     -74.39110000
C      -44.73610000     -35.59380000     -73.23120000
C      -43.75290000     -36.05690000     -72.34820000
C      -42.46410000     -35.68470000     -72.41260000
C      -42.07350000     -35.01170000     -73.60360000
H      -42.60840000     -33.96500000     -75.28790000
H      -45.79260000     -35.95120000     -73.12680000
H      -41.71540000     -36.04760000     -71.71860000
H      -41.00110000     -34.67720000     -73.74450000
C      -44.23350000     -37.02340000     -71.24540000
H      -43.81620000     -38.06410000     -71.30480000
H      -45.30550000     -37.06040000     -71.27830000
C      -45.45480000     -34.31430000     -75.32120000
H      -45.12360000     -34.39900000     -76.37760000
H      -46.41900000     -34.93100000     -75.29310000
S      -43.74760000     -36.54660000     -69.51150000
S      -45.85890000     -32.52200000     -75.00040000
C      -44.31370000     -34.76300000     -69.59180000
H      -44.13810000     -34.38020000     -68.59530000
H      -43.63920000     -34.25630000     -70.25110000
C      -46.24610000     -32.43990000     -73.18590000
H      -46.66870000     -33.45610000     -72.85320000
H      -47.01380000     -31.70060000     -73.05480000
C      -45.04950000     -31.84740000     -72.37380000
H      -44.28780000     -32.66340000     -72.27860000
H      -44.53250000     -30.99920000     -72.90710000
C      -45.83590000     -34.65570000     -70.09090000
H      -46.26220000     -35.61910000     -69.80880000
H      -45.68480000     -34.63780000     -71.21530000
C      -46.54530000     -33.41170000     -69.53490000
C      -47.22950000     -33.50740000     -68.35830000
C      -46.22500000     -31.96920000     -69.94610000
H      -47.33910000     -34.42330000     -67.77720000
C      -46.74080000     -31.07510000     -69.01950000
C      -45.56340000     -31.26320000     -71.06890000
C      -45.58010000     -29.89570000     -70.95610000
S      -47.65350000     -31.88790000     -67.73700000
S      -46.54160000     -29.40820000     -69.53720000
H      -45.28040000     -29.28740000     -71.78740000
