40
Properties=species:S:1:pos:R:3 #=T CELL(abcABC):=T 1.889726e+02=T 90.00000=T Traj:=T positionsangstrom=T Step:=T 0=T Bead:=T pbc="F F F"
C      -42.99080000     -34.21740000     -74.36680000
C      -44.31850000     -34.76360000     -74.24830000
C      -44.50900000     -35.59770000     -73.10670000
C      -43.42630000     -36.13460000     -72.35280000
C      -42.10020000     -35.70500000     -72.66550000
C      -41.88750000     -34.77950000     -73.66760000
H      -42.89840000     -33.48360000     -75.20580000
H      -45.44600000     -36.07000000     -72.97980000
H      -41.20090000     -36.10060000     -72.14140000
H      -40.91170000     -34.47290000     -73.92190000
C      -43.68700000     -37.24220000     -71.33500000
H      -42.90430000     -37.94710000     -71.33260000
H      -44.47410000     -37.90970000     -71.70120000
C      -45.50120000     -34.43060000     -75.16160000
H      -45.32420000     -34.62910000     -76.22200000
H      -46.43500000     -34.95960000     -74.85040000
S      -44.01410000     -36.74980000     -69.57170000
S      -45.81200000     -32.57420000     -75.12200000
C      -44.67750000     -35.02360000     -69.59460000
H      -44.43780000     -34.62810000     -68.63750000
H      -44.07590000     -34.50920000     -70.37840000
C      -46.25190000     -32.33240000     -73.29920000
H      -46.79470000     -33.29130000     -73.06300000
H      -46.92820000     -31.50630000     -73.22630000
C      -45.07780000     -32.12890000     -72.27930000
H      -44.57900000     -33.07290000     -71.95360000
H      -44.33180000     -31.40170000     -72.81880000
C      -46.13530000     -34.73320000     -69.88090000
H      -46.81510000     -35.38910000     -69.35250000
H      -46.38670000     -34.79160000     -70.94670000
C      -46.48570000     -33.33780000     -69.37170000
C      -47.02400000     -33.26890000     -68.07890000
C      -46.36910000     -31.98640000     -69.97190000
H      -47.17900000     -34.10630000     -67.42760000
C      -46.91430000     -31.05570000     -69.13400000
C      -45.71640000     -31.31120000     -71.12890000
C      -45.82590000     -29.94230000     -71.08810000
S      -47.49620000     -31.64480000     -67.55600000
S      -46.67020000     -29.36750000     -69.73280000
H      -45.48130000     -29.24590000     -71.86390000
