40
Properties=species:S:1:pos:R:3 #=T CELL(abcABC):=T 1.889726e+02=T 90.00000=T Traj:=T positionsangstrom=T Step:=T 0=T Bead:=T pbc="F F F"
C      -46.37860000     -36.19540000     -68.37700000
C      -45.16060000     -36.22930000     -69.08080000
C      -44.31960000     -35.13530000     -68.80410000
C      -44.70280000     -34.08290000     -67.93450000
C      -45.87750000     -34.15090000     -67.16800000
C      -46.72960000     -35.21830000     -67.41360000
H      -47.12650000     -36.98030000     -68.62850000
H      -43.29930000     -35.19510000     -69.33460000
H      -46.04140000     -33.46170000     -66.35010000
H      -47.64940000     -35.26530000     -66.85550000
C      -43.87800000     -32.79170000     -67.85210000
H      -43.08290000     -32.81220000     -68.56210000
H      -43.50360000     -32.47520000     -66.88300000
C      -44.94220000     -37.43490000     -70.01880000
H      -44.22390000     -38.17140000     -69.56430000
H      -45.80640000     -38.10140000     -70.07820000
S      -44.94400000     -31.35100000     -68.34220000
S      -44.26460000     -37.01910000     -71.74370000
C      -45.19280000     -31.46750000     -70.20320000
H      -45.84370000     -32.36010000     -70.40090000
H      -45.77430000     -30.60560000     -70.38590000
C      -45.53310000     -35.89660000     -72.58570000
H      -46.49790000     -36.44390000     -72.67020000
H      -45.09540000     -35.82410000     -73.62990000
C      -45.59890000     -34.49800000     -71.98200000
H      -46.33420000     -34.55100000     -71.23510000
H      -44.64440000     -34.15450000     -71.52170000
C      -43.98720000     -31.59380000     -71.05970000
H      -43.50140000     -32.59640000     -70.89990000
H      -43.20820000     -30.76950000     -70.84480000
C      -44.41410000     -31.37790000     -72.49060000
C      -44.16210000     -30.19370000     -73.13290000
C      -45.38950000     -32.14480000     -73.21860000
H      -43.46610000     -29.47660000     -72.73220000
C      -45.92920000     -31.49690000     -74.31330000
C      -45.98660000     -33.47900000     -73.01940000
C      -46.96700000     -33.71880000     -73.97300000
S      -45.14620000     -29.93520000     -74.56510000
S      -47.10560000     -32.47740000     -75.15650000
H      -47.57510000     -34.61580000     -74.24150000
