40
Properties=species:S:1:pos:R:3 #=T CELL(abcABC):=T 1.889726e+02=T 90.00000=T Traj:=T positionsangstrom=T Step:=T 0=T Bead:=T pbc="F F F"
C      -46.41940000     -36.44380000     -68.31990000
C      -45.30490000     -36.35650000     -69.19730000
C      -44.57330000     -35.15080000     -68.99580000
C      -44.91900000     -34.12290000     -68.12030000
C      -46.17140000     -34.18930000     -67.41720000
C      -46.76040000     -35.45570000     -67.39300000
H      -47.00390000     -37.36030000     -68.31940000
H      -43.65280000     -34.94820000     -69.57860000
H      -46.45900000     -33.31990000     -66.82000000
H      -47.69400000     -35.64130000     -66.80370000
C      -43.91850000     -33.03220000     -67.95940000
H      -43.12030000     -33.26820000     -68.63500000
H      -43.49720000     -33.16630000     -66.98200000
C      -45.03950000     -37.49060000     -70.23270000
H      -44.45000000     -38.33150000     -69.85020000
H      -46.03970000     -37.83280000     -70.56990000
S      -44.49720000     -31.30100000     -68.10050000
S      -44.12700000     -36.89220000     -71.69770000
C      -45.36120000     -31.34270000     -69.78760000
H      -46.02040000     -32.15930000     -69.86620000
H      -45.84380000     -30.42990000     -69.89620000
C      -45.34190000     -35.72900000     -72.48900000
H      -46.19860000     -36.50010000     -72.53850000
H      -44.91650000     -35.59970000     -73.52700000
C      -45.78750000     -34.38750000     -71.88450000
H      -46.69860000     -34.48560000     -71.33130000
H      -44.96050000     -34.01000000     -71.27560000
C      -44.21290000     -31.44360000     -70.86950000
H      -43.78660000     -32.47980000     -70.73010000
H      -43.40820000     -30.75150000     -70.62780000
C      -44.68000000     -31.23570000     -72.34920000
C      -44.20940000     -30.19550000     -73.07860000
C      -45.54190000     -32.10970000     -73.14270000
H      -43.58350000     -29.39670000     -72.66280000
C      -45.92350000     -31.50510000     -74.33880000
C      -46.15490000     -33.40640000     -73.02610000
C      -46.96250000     -33.70820000     -74.10510000
S      -45.06220000     -30.03380000     -74.61390000
S      -46.90750000     -32.46720000     -75.38510000
H      -47.49190000     -34.61360000     -74.18300000
