40
Properties=species:S:1:pos:R:3 #=T CELL(abcABC):=T 1.889726e+02=T 90.00000=T Traj:=T positionsangstrom=T Step:=T 0=T Bead:=T pbc="F F F"
C      -46.26510000     -36.50340000     -68.07940000
C      -45.22800000     -36.28160000     -68.98270000
C      -44.55520000     -35.04720000     -68.86670000
C      -44.78190000     -34.06050000     -67.91760000
C      -45.94180000     -34.23740000     -67.11300000
C      -46.64390000     -35.45090000     -67.17930000
H      -46.88610000     -37.43370000     -68.07980000
H      -43.72270000     -34.84910000     -69.61790000
H      -46.27940000     -33.44500000     -66.40190000
H      -47.42140000     -35.59530000     -66.57720000
C      -43.88020000     -32.90460000     -67.79300000
H      -42.92320000     -33.22460000     -68.38780000
H      -43.51530000     -32.71570000     -66.77040000
C      -44.64520000     -37.30990000     -69.97640000
H      -43.66350000     -37.54400000     -69.47400000
H      -45.26840000     -38.18940000     -70.02350000
S      -44.51690000     -31.29310000     -68.42560000
S      -44.08640000     -36.74790000     -71.67510000
C      -45.14120000     -31.68170000     -70.06540000
H      -45.72900000     -32.57810000     -69.93970000
H      -45.81610000     -30.86680000     -70.23060000
C      -45.58520000     -35.94030000     -72.38620000
H      -46.38390000     -36.48060000     -71.97800000
H      -45.50160000     -36.18730000     -73.43590000
C      -45.53730000     -34.48650000     -72.13500000
H      -46.15930000     -34.32660000     -71.26810000
H      -44.51680000     -34.21900000     -71.82400000
C      -44.11620000     -31.66960000     -71.18310000
H      -43.69440000     -32.62140000     -71.08260000
H      -43.33230000     -30.87830000     -70.85350000
C      -44.64370000     -31.29130000     -72.52020000
C      -44.45840000     -30.06030000     -73.10030000
C      -45.59590000     -32.11150000     -73.23900000
H      -43.72710000     -29.41350000     -72.68550000
C      -46.12810000     -31.49590000     -74.36000000
C      -46.04770000     -33.52350000     -73.20530000
C      -46.90380000     -33.80990000     -74.22250000
S      -45.37090000     -29.91340000     -74.59260000
S      -47.15670000     -32.49510000     -75.28510000
H      -47.30080000     -34.83270000     -74.35060000
