40
Properties=species:S:1:pos:R:3 #=T CELL(abcABC):=T 1.889726e+02=T 90.00000=T Traj:=T positionsangstrom=T Step:=T 0=T Bead:=T pbc="F F F"
C      -46.30400000     -35.91530000     -68.80370000
C      -45.00660000     -36.03070000     -69.30470000
C      -44.05970000     -35.05310000     -68.91630000
C      -44.36690000     -33.90520000     -68.21580000
C      -45.67420000     -33.82800000     -67.74370000
C      -46.63520000     -34.77970000     -68.01200000
H      -47.08060000     -36.63730000     -68.97020000
H      -43.07650000     -35.10980000     -69.47190000
H      -46.06850000     -32.92880000     -67.10210000
H      -47.63280000     -34.59700000     -67.59130000
C      -43.36450000     -32.79200000     -67.99970000
H      -42.51440000     -32.81340000     -68.74060000
H      -42.87060000     -32.89210000     -66.95130000
C      -44.71060000     -37.36390000     -69.95050000
H      -44.10510000     -37.91430000     -69.27840000
H      -45.66950000     -37.98080000     -69.95380000
S      -44.15620000     -31.10960000     -68.20040000
S      -43.92220000     -37.21670000     -71.60310000
C      -45.14220000     -31.27830000     -69.76920000
H      -45.80870000     -32.16650000     -69.72040000
H      -45.77380000     -30.35080000     -69.84120000
C      -45.17020000     -36.07980000     -72.44740000
H      -46.20890000     -36.34960000     -72.21410000
H      -45.14160000     -36.16830000     -73.57640000
C      -45.08480000     -34.57520000     -72.12670000
H      -45.57930000     -34.37100000     -71.16390000
H      -44.06850000     -34.34600000     -71.95980000
C      -44.18920000     -31.49500000     -71.09180000
H      -43.76740000     -32.51300000     -71.07710000
H      -43.22540000     -30.83960000     -71.05520000
C      -45.02950000     -31.29770000     -72.34340000
C      -45.29880000     -30.00090000     -72.81920000
C      -45.74450000     -32.27000000     -73.15400000
H      -44.65920000     -29.14310000     -72.54040000
C      -46.55490000     -31.69880000     -74.09820000
C      -45.74790000     -33.71640000     -73.18150000
C      -46.55200000     -34.19300000     -74.19490000
S      -46.38670000     -29.91600000     -74.18450000
S      -47.27080000     -32.89930000     -75.21280000
H      -46.78360000     -35.24090000     -74.49180000
