40
Properties=species:S:1:pos:R:3 #=T CELL(abcABC):=T 1.889726e+02=T 90.00000=T Traj:=T positionsangstrom=T Step:=T 0=T Bead:=T pbc="F F F"
C      -46.36920000     -36.14630000     -68.81730000
C      -44.99910000     -36.28440000     -69.16940000
C      -44.14780000     -35.23420000     -68.94470000
C      -44.54970000     -34.01720000     -68.33560000
C      -45.89800000     -33.86020000     -67.97390000
C      -46.76930000     -34.97390000     -68.23900000
H      -47.05510000     -36.97960000     -69.00810000
H      -43.18460000     -35.30320000     -69.24870000
H      -46.27890000     -32.86720000     -67.70690000
H      -47.80030000     -34.92600000     -68.00820000
C      -43.48940000     -33.01920000     -68.07890000
H      -42.57070000     -33.13470000     -68.75370000
H      -43.07580000     -32.98890000     -67.04070000
C      -44.51570000     -37.49210000     -69.93560000
H      -43.72950000     -38.07820000     -69.38780000
H      -45.25570000     -38.22120000     -70.11410000
S      -43.94440000     -31.13170000     -68.27370000
S      -43.79400000     -37.07770000     -71.55710000
C      -44.80850000     -31.06990000     -69.87130000
H      -45.57940000     -31.86510000     -69.81300000
H      -45.40780000     -30.15120000     -69.94720000
C      -45.00000000     -35.89730000     -72.35670000
H      -45.85090000     -35.88580000     -71.62850000
H      -45.36290000     -36.37450000     -73.28370000
C      -44.61100000     -34.43850000     -72.47940000
H      -44.65800000     -34.09060000     -71.48850000
H      -43.56180000     -34.29200000     -72.79840000
C      -44.11300000     -31.38850000     -71.15800000
H      -43.91500000     -32.44980000     -71.24650000
H      -43.24260000     -30.77670000     -71.18390000
C      -45.05180000     -31.15600000     -72.35370000
C      -45.45680000     -29.89580000     -72.79270000
C      -45.67200000     -32.22430000     -73.12300000
H      -45.31130000     -28.90820000     -72.36190000
C      -46.62140000     -31.69710000     -74.04690000
C      -45.59110000     -33.63050000     -73.24850000
C      -46.52280000     -34.14090000     -74.18200000
S      -46.65790000     -29.93010000     -74.09820000
S      -47.55660000     -32.89090000     -74.86390000
H      -46.64010000     -35.10900000     -74.53320000
