40
Properties=species:S:1:pos:R:3 #=T CELL(abcABC):=T 1.889726e+02=T 90.00000=T Traj:=T positionsangstrom=T Step:=T 0=T Bead:=T pbc="F F F"
C      -44.63840000     -36.23980000     -74.06000000
C      -44.12010000     -36.26940000     -72.73510000
C      -43.26040000     -35.23560000     -72.36230000
C      -43.03410000     -34.14590000     -73.18060000
C      -43.70310000     -34.00630000     -74.39800000
C      -44.46580000     -35.07010000     -74.86800000
H      -45.18700000     -37.11100000     -74.42620000
H      -42.76750000     -35.25080000     -71.34310000
H      -43.49250000     -33.26130000     -75.14800000
H      -44.86950000     -35.17340000     -75.88340000
C      -42.01640000     -33.13840000     -72.69970000
H      -41.27880000     -32.87680000     -73.46020000
H      -41.49960000     -33.60040000     -71.85710000
C      -44.53350000     -37.31600000     -71.71900000
H      -44.48850000     -38.38340000     -72.10730000
H      -43.92150000     -37.13960000     -70.80100000
S      -42.84260000     -31.61190000     -72.10750000
S      -46.42820000     -37.11180000     -71.44670000
C      -42.78340000     -32.03660000     -70.33030000
H      -41.81560000     -32.37100000     -70.14140000
H      -42.78010000     -31.08790000     -69.69410000
C      -46.61900000     -35.36000000     -70.91870000
H      -45.86680000     -35.17550000     -70.06800000
H      -47.62320000     -35.32830000     -70.48900000
C      -46.59040000     -34.18470000     -71.93670000
H      -45.54750000     -34.19390000     -72.17830000
H      -47.17950000     -34.32590000     -72.89390000
C      -43.88520000     -33.01560000     -69.87150000
H      -43.44440000     -33.74180000     -69.09000000
H      -44.00540000     -33.64590000     -70.74250000
C      -45.12560000     -32.33900000     -69.48340000
C      -45.08090000     -31.48960000     -68.39280000
C      -46.34720000     -32.22160000     -70.28200000
H      -44.21090000     -31.35940000     -67.70990000
C      -47.19690000     -31.25400000     -69.68770000
C      -47.01900000     -32.90480000     -71.34850000
C      -48.24960000     -32.34150000     -71.68510000
S      -46.45620000     -30.47460000     -68.28390000
S      -48.60050000     -30.94630000     -70.66500000
H      -48.70510000     -32.69740000     -72.63040000
