40
Properties=species:S:1:pos:R:3 #=T CELL(abcABC):=T 1.889726e+02=T 90.00000=T Traj:=T positionsangstrom=T Step:=T 0=T Bead:=T pbc="F F F"
C      -48.55520000     -30.86220000     -69.46200000
C      -48.59610000     -31.64810000     -70.59540000
C      -48.47740000     -33.03930000     -70.38090000
C      -48.25620000     -33.62360000     -69.16270000
C      -48.19120000     -32.78820000     -68.04480000
C      -48.35770000     -31.44470000     -68.22600000
H      -48.65790000     -29.76910000     -69.49990000
H      -48.46230000     -33.70660000     -71.24750000
H      -47.88040000     -33.22870000     -67.06150000
H      -48.16850000     -30.76250000     -67.36830000
C      -47.97260000     -35.08890000     -69.04590000
H      -48.80330000     -35.75670000     -69.49750000
H      -47.92600000     -35.44160000     -67.96320000
C      -48.59870000     -31.05520000     -71.98600000
H      -48.72340000     -31.86130000     -72.79930000
H      -49.33830000     -30.27760000     -72.12640000
S      -46.33620000     -35.48880000     -69.89350000
S      -46.91930000     -30.30850000     -72.31560000
C      -45.09170000     -34.60980000     -68.85250000
H      -45.57470000     -34.10780000     -67.97030000
H      -44.51120000     -35.39850000     -68.33220000
C      -45.88480000     -31.66500000     -72.95040000
H      -45.98810000     -31.71650000     -74.03360000
H      -46.28230000     -32.62790000     -72.61000000
C      -44.40730000     -31.52000000     -72.54560000
H      -44.01820000     -30.70870000     -73.17320000
H      -44.26540000     -31.09230000     -71.50240000
C      -44.16550000     -33.74990000     -69.70360000
H      -43.45160000     -33.27490000     -68.93410000
H      -44.74440000     -32.94220000     -70.12360000
C      -43.45060000     -34.40290000     -70.84870000
C      -42.91670000     -35.66310000     -70.79210000
C      -43.10590000     -33.77910000     -72.10960000
H      -42.89090000     -36.36090000     -69.96820000
C      -42.32570000     -34.67070000     -72.89180000
C      -43.58350000     -32.65640000     -72.93100000
C      -43.04740000     -32.67970000     -74.19700000
S      -41.97850000     -36.21930000     -72.20920000
S      -41.91270000     -34.03810000     -74.46510000
H      -43.03100000     -31.99450000     -74.99670000
