40
Properties=species:S:1:pos:R:3 #=T CELL(abcABC):=T 1.889726e+02=T 90.00000=T Traj:=T positionsangstrom=T Step:=T 0=T Bead:=T pbc="F F F"
C      -44.89930000     -35.75830000     -74.07780000
C      -44.11260000     -36.06430000     -72.88790000
C      -43.03250000     -35.23010000     -72.57600000
C      -42.90740000     -34.08110000     -73.40580000
C      -43.53600000     -33.95790000     -74.63460000
C      -44.58760000     -34.79040000     -75.01590000
H      -45.73460000     -36.40020000     -74.42200000
H      -42.40200000     -35.33870000     -71.72610000
H      -43.16560000     -33.18460000     -75.31910000
H      -45.10160000     -34.56770000     -75.94360000
C      -41.94100000     -33.07170000     -73.01250000
H      -41.53710000     -32.51290000     -73.86760000
H      -41.12330000     -33.62080000     -72.53390000
C      -44.49380000     -37.33850000     -72.04370000
H      -44.66740000     -38.15640000     -72.78950000
H      -43.68880000     -37.73700000     -71.41610000
S      -42.74760000     -31.90010000     -71.78350000
S      -46.10370000     -37.16320000     -71.04620000
C      -42.65450000     -32.62650000     -70.10190000
H      -41.89070000     -33.45590000     -70.13270000
H      -42.29440000     -31.93220000     -69.41300000
C      -46.68670000     -35.34660000     -70.76810000
H      -46.10960000     -35.15030000     -69.81090000
H      -47.81370000     -35.31630000     -70.52460000
C      -46.47170000     -34.31250000     -71.81940000
H      -45.47050000     -34.07220000     -72.15440000
H      -46.97140000     -34.61310000     -72.68470000
C      -44.03330000     -33.16110000     -69.64960000
H      -43.79830000     -33.65930000     -68.70230000
H      -44.35320000     -33.97790000     -70.35460000
C      -45.14940000     -32.13910000     -69.51340000
C      -45.05520000     -31.05530000     -68.57240000
C      -46.40810000     -32.17330000     -70.22690000
H      -44.15840000     -30.79050000     -67.99860000
C      -47.29890000     -31.20440000     -69.77530000
C      -47.07150000     -33.00330000     -71.24250000
C      -48.38610000     -32.60730000     -71.52440000
S      -46.55260000     -30.10700000     -68.68880000
S      -48.88000000     -31.19220000     -70.60890000
H      -49.11330000     -33.02150000     -72.23660000
