40
Properties=species:S:1:pos:R:3 #=T CELL(abcABC):=T 1.889726e+02=T 90.00000=T Traj:=T positionsangstrom=T Step:=T 0=T Bead:=T pbc="F F F"
C      -46.19110000     -36.41560000     -69.15120000
C      -44.90010000     -36.40140000     -69.74470000
C      -43.95250000     -35.50760000     -69.21550000
C      -44.34110000     -34.62230000     -68.17970000
C      -45.56690000     -34.73360000     -67.54880000
C      -46.49650000     -35.62270000     -68.07370000
H      -46.94190000     -37.05780000     -69.65400000
H      -42.96420000     -35.48670000     -69.74350000
H      -45.76360000     -34.01760000     -66.71710000
H      -47.46050000     -35.74680000     -67.63100000
C      -43.34880000     -33.54990000     -67.67970000
H      -42.40150000     -33.59530000     -68.30630000
H      -43.14700000     -33.91650000     -66.66320000
C      -44.61370000     -37.45990000     -70.80630000
H      -43.58410000     -37.61400000     -71.16930000
H      -44.89470000     -38.40060000     -70.45990000
S      -44.17510000     -31.85280000     -67.67460000
S      -45.85620000     -37.12730000     -72.21380000
C      -44.07030000     -31.37280000     -69.46360000
H      -44.56880000     -30.44100000     -69.42600000
H      -42.98590000     -31.16960000     -69.81180000
C      -45.48270000     -35.38840000     -72.84140000
H      -45.18860000     -35.40190000     -73.96530000
H      -44.52850000     -34.99340000     -72.47580000
C      -46.64980000     -34.41500000     -72.65590000
H      -47.52280000     -35.02100000     -72.86570000
H      -46.68900000     -34.28240000     -71.58380000
C      -44.90240000     -32.17760000     -70.44240000
H      -45.94010000     -32.15780000     -70.11540000
H      -44.61100000     -33.29750000     -70.57950000
C      -44.99830000     -31.48870000     -71.81410000
C      -44.47970000     -30.26630000     -72.04800000
C      -45.71850000     -32.00710000     -73.06580000
H      -43.93700000     -29.71440000     -71.27940000
C      -45.72480000     -31.03340000     -74.03030000
C      -46.48450000     -33.20340000     -73.41080000
C      -47.01650000     -33.10080000     -74.70940000
S      -44.94230000     -29.55220000     -73.55480000
S      -46.62440000     -31.55590000     -75.43020000
H      -47.68470000     -33.85180000     -75.23080000
