40
Properties=species:S:1:pos:R:3 #=T CELL(abcABC):=T 1.889726e+02=T 90.00000=T Traj:=T positionsangstrom=T Step:=T 0=T Bead:=T pbc="F F F"
C      -44.85360000     -35.95870000     -74.11110000
C      -44.19360000     -36.15170000     -72.88040000
C      -43.08950000     -35.33710000     -72.53040000
C      -42.68270000     -34.33770000     -73.36640000
C      -43.22280000     -34.23200000     -74.66390000
C      -44.27580000     -35.07820000     -75.06260000
H      -45.72200000     -36.52030000     -74.38800000
H      -42.64770000     -35.54470000     -71.57850000
H      -42.83450000     -33.56290000     -75.41180000
H      -44.71170000     -34.93690000     -76.07110000
C      -41.82320000     -33.20720000     -72.92680000
H      -41.41440000     -32.70620000     -73.80590000
H      -41.00690000     -33.42350000     -72.21170000
C      -44.72970000     -37.23370000     -71.94920000
H      -44.58330000     -38.24920000     -72.23390000
H      -44.03580000     -37.17020000     -71.13420000
S      -43.02780000     -31.84270000     -72.17310000
S      -46.46840000     -37.04910000     -71.38720000
C      -42.81810000     -32.13040000     -70.39210000
H      -41.80270000     -32.54070000     -70.22330000
H      -42.96300000     -31.11350000     -69.98490000
C      -46.89030000     -35.26870000     -70.81430000
H      -46.55480000     -34.87770000     -69.88550000
H      -47.94760000     -35.50900000     -70.67730000
C      -46.47790000     -34.20550000     -71.77850000
H      -45.39610000     -34.19440000     -71.82030000
H      -46.80570000     -34.42790000     -72.76990000
C      -43.88350000     -33.05870000     -69.79330000
H      -43.49020000     -33.30860000     -68.79560000
H      -44.10290000     -33.96550000     -70.28190000
C      -45.13650000     -32.24770000     -69.34580000
C      -45.07160000     -31.40290000     -68.24230000
C      -46.34700000     -32.15910000     -70.15330000
H      -44.33030000     -31.14290000     -67.43570000
C      -47.17410000     -31.18960000     -69.64940000
C      -46.96820000     -32.86570000     -71.24020000
C      -48.21070000     -32.29520000     -71.53330000
S      -46.49970000     -30.39710000     -68.22760000
S      -48.62030000     -30.95820000     -70.53020000
H      -48.92470000     -32.76650000     -72.19370000
