40
Properties=species:S:1:pos:R:3 #=T CELL(abcABC):=T 1.889726e+02=T 90.00000=T Traj:=T positionsangstrom=T Step:=T 0=T Bead:=T pbc="F F F"
C      -48.37770000     -30.84670000     -69.36880000
C      -48.50630000     -31.59930000     -70.55870000
C      -48.41380000     -33.01180000     -70.39580000
C      -48.23210000     -33.63350000     -69.10700000
C      -48.19020000     -32.81960000     -67.97840000
C      -48.33690000     -31.39770000     -68.08430000
H      -48.28600000     -29.78150000     -69.47530000
H      -48.32490000     -33.58430000     -71.27620000
H      -48.22160000     -33.27630000     -67.02200000
H      -48.19390000     -30.76670000     -67.20860000
C      -47.93980000     -35.09070000     -69.10970000
H      -48.74430000     -35.58280000     -69.50430000
H      -47.70180000     -35.41950000     -68.11500000
C      -48.56350000     -30.93440000     -71.92950000
H      -48.78000000     -31.67500000     -72.66790000
H      -49.32810000     -30.17370000     -71.94980000
S      -46.49760000     -35.43090000     -70.21580000
S      -46.88570000     -30.34100000     -72.34120000
C      -45.12430000     -34.80580000     -69.08800000
H      -45.63020000     -34.37850000     -68.26040000
H      -44.58340000     -35.67720000     -68.71370000
C      -45.83980000     -31.84540000     -72.42600000
H      -46.00440000     -32.41320000     -73.35020000
H      -46.11420000     -32.51330000     -71.57210000
C      -44.38880000     -31.51090000     -72.17960000
H      -44.09080000     -30.57080000     -72.59070000
H      -44.19920000     -31.58970000     -71.12730000
C      -44.25540000     -33.81620000     -69.73100000
H      -43.49660000     -33.35650000     -69.11320000
H      -44.91510000     -32.99140000     -70.04250000
C      -43.46820000     -34.43010000     -70.92000000
C      -42.91760000     -35.68230000     -70.80980000
C      -43.17830000     -33.88950000     -72.22290000
H      -43.14270000     -36.29600000     -69.89280000
C      -42.42030000     -34.72750000     -73.03140000
C      -43.43230000     -32.58140000     -72.82230000
C      -42.77100000     -32.46160000     -74.03130000
S      -41.98480000     -36.19180000     -72.23810000
S      -42.01860000     -34.01550000     -74.51360000
H      -42.80630000     -31.74170000     -74.89800000
