40
Properties=species:S:1:pos:R:3 #=T CELL(abcABC):=T 1.889726e+02=T 90.00000=T Traj:=T positionsangstrom=T Step:=T 0=T Bead:=T pbc="F F F"
C      -46.57990000     -36.50560000     -69.00870000
C      -45.47210000     -36.57550000     -69.80720000
C      -44.39190000     -35.64730000     -69.59180000
C      -44.32270000     -34.89010000     -68.36550000
C      -45.49300000     -34.89040000     -67.49230000
C      -46.59140000     -35.64060000     -67.87740000
H      -47.42290000     -37.17510000     -69.15560000
H      -43.54580000     -35.71840000     -70.26680000
H      -45.51030000     -34.21270000     -66.69480000
H      -47.46600000     -35.57150000     -67.26640000
C      -43.03940000     -34.25710000     -67.96420000
H      -42.23750000     -34.59440000     -68.50960000
H      -42.76750000     -34.43900000     -66.91500000
C      -45.40870000     -37.45260000     -71.00260000
H      -44.40570000     -37.43940000     -71.48900000
H      -45.70990000     -38.39260000     -70.60670000
S      -43.25950000     -32.40140000     -67.89820000
S      -46.66080000     -36.85300000     -72.31810000
C      -43.28930000     -32.02710000     -69.72560000
H      -42.78380000     -31.05270000     -69.86040000
H      -42.57880000     -32.81840000     -70.17460000
C      -46.01840000     -35.22580000     -72.77190000
H      -45.88610000     -35.17500000     -73.87750000
H      -44.97920000     -35.09200000     -72.41700000
C      -46.88520000     -34.06330000     -72.28560000
H      -47.93160000     -34.32630000     -72.46320000
H      -46.71460000     -33.82340000     -71.30500000
C      -44.61500000     -32.10210000     -70.44710000
H      -45.39450000     -31.79710000     -69.69760000
H      -44.76120000     -33.12010000     -70.80220000
C      -44.84900000     -31.32550000     -71.72250000
C      -44.15340000     -30.17110000     -72.02650000
C      -45.76250000     -31.66950000     -72.79470000
H      -43.32910000     -29.73910000     -71.42010000
C      -45.70090000     -30.79250000     -73.86380000
C      -46.62110000     -32.80170000     -73.11920000
C      -47.08370000     -32.78170000     -74.43060000
S      -44.52900000     -29.52210000     -73.64050000
S      -46.63620000     -31.23560000     -75.22940000
H      -47.73530000     -33.46820000     -74.94170000
