40
Properties=species:S:1:pos:R:3 #=T CELL(abcABC):=T 1.889726e+02=T 90.00000=T Traj:=T positionsangstrom=T Step:=T 0=T Bead:=T pbc="F F F"
C      -46.51790000     -36.61750000     -68.88960000
C      -45.39610000     -36.57170000     -69.76190000
C      -44.47880000     -35.59380000     -69.59910000
C      -44.43850000     -34.74020000     -68.43420000
C      -45.51230000     -34.77570000     -67.56050000
C      -46.59800000     -35.67260000     -67.85010000
H      -47.28490000     -37.31970000     -69.14540000
H      -43.78180000     -35.43090000     -70.36820000
H      -45.57670000     -34.16670000     -66.70510000
H      -47.39080000     -35.72770000     -67.13300000
C      -43.22970000     -33.83340000     -68.17890000
H      -42.54800000     -33.78910000     -69.06070000
H      -42.68280000     -34.11080000     -67.30420000
C      -45.22680000     -37.47770000     -70.93770000
H      -44.21790000     -37.35560000     -71.38960000
H      -45.15110000     -38.53700000     -70.72320000
S      -43.53060000     -32.05410000     -67.86270000
S      -46.44850000     -37.08040000     -72.31310000
C      -43.42840000     -31.42710000     -69.63130000
H      -43.74030000     -30.36050000     -69.50330000
H      -42.32030000     -31.45650000     -69.93420000
C      -45.80470000     -35.46030000     -72.88850000
H      -45.90690000     -35.32440000     -74.00960000
H      -44.74700000     -35.38470000     -72.64530000
C      -46.57780000     -34.21130000     -72.18230000
H      -47.63820000     -34.48440000     -72.04590000
H      -46.24320000     -34.15870000     -71.15060000
C      -44.34390000     -32.17020000     -70.61930000
H      -45.13910000     -32.68740000     -70.09880000
H      -43.86810000     -33.06090000     -70.96790000
C      -44.63430000     -31.41450000     -71.89650000
C      -44.05920000     -30.21480000     -72.14220000
C      -45.55410000     -31.86400000     -72.92360000
H      -43.19700000     -29.78710000     -71.58790000
C      -45.65250000     -30.99300000     -73.97320000
C      -46.54830000     -32.96600000     -73.01660000
C      -47.36890000     -32.77200000     -74.09900000
S      -44.61750000     -29.50150000     -73.66670000
S      -46.88250000     -31.43210000     -75.12420000
H      -48.01050000     -33.55190000     -74.46760000
