40
Properties=species:S:1:pos:R:3 #=T CELL(abcABC):=T 1.889726e+02=T 90.00000=T Traj:=T positionsangstrom=T Step:=T 0=T Bead:=T pbc="F F F"
C      -46.61670000     -36.17390000     -68.96050000
C      -45.41660000     -36.44800000     -69.66960000
C      -44.23790000     -35.74680000     -69.37540000
C      -44.14430000     -34.81310000     -68.38250000
C      -45.26390000     -34.65590000     -67.55620000
C      -46.47410000     -35.39510000     -67.83240000
H      -47.51370000     -36.78990000     -69.22530000
H      -43.25500000     -35.91450000     -69.96310000
H      -45.26970000     -34.05420000     -66.65160000
H      -47.33830000     -35.28630000     -67.13420000
C      -42.89770000     -34.01590000     -68.22290000
H      -42.21800000     -34.05260000     -69.05490000
H      -42.35500000     -34.54220000     -67.37530000
C      -45.38850000     -37.45280000     -70.81900000
H      -44.35890000     -37.59170000     -71.18230000
H      -45.84500000     -38.42770000     -70.57680000
S      -43.43200000     -32.33860000     -67.87930000
S      -46.57190000     -37.03020000     -72.21610000
C      -43.55360000     -31.68560000     -69.59880000
H      -44.09000000     -30.76040000     -69.40580000
H      -42.58880000     -31.29000000     -70.02820000
C      -45.92940000     -35.44930000     -72.96290000
H      -45.93710000     -35.65970000     -74.05590000
H      -44.83320000     -35.27490000     -72.77090000
C      -46.81610000     -34.29170000     -72.52960000
H      -47.86630000     -34.57050000     -72.69130000
H      -46.72200000     -34.24720000     -71.41250000
C      -44.48580000     -32.43510000     -70.56040000
H      -45.42740000     -32.79880000     -70.12840000
H      -43.97180000     -33.36300000     -70.94620000
C      -44.76270000     -31.58790000     -71.86850000
C      -44.14830000     -30.34010000     -72.08880000
C      -45.64540000     -31.94290000     -72.98040000
H      -43.46980000     -29.79030000     -71.47770000
C      -45.62850000     -30.92270000     -73.93440000
C      -46.58210000     -32.95750000     -73.26540000
C      -47.36140000     -32.62710000     -74.37490000
S      -44.59540000     -29.53820000     -73.56350000
S      -46.82970000     -31.07060000     -75.13850000
H      -48.18770000     -33.18550000     -74.80440000
