40
Properties=species:S:1:pos:R:3 #=T CELL(abcABC):=T 1.889726e+02=T 90.00000=T Traj:=T positionsangstrom=T Step:=T 0=T Bead:=T pbc="F F F"
C      -45.39580000     -35.42890000     -68.83210000
C      -43.97180000     -35.26870000     -68.94960000
C      -43.34720000     -34.03600000     -68.70180000
C      -44.16790000     -32.88650000     -68.54980000
C      -45.55570000     -33.02590000     -68.43080000
C      -46.15480000     -34.30290000     -68.54480000
H      -45.79250000     -36.37840000     -68.94160000
H      -42.26390000     -33.87710000     -68.86900000
H      -46.18680000     -32.21110000     -68.22180000
H      -47.23800000     -34.34160000     -68.51150000
C      -43.58590000     -31.46520000     -68.40930000
H      -42.59340000     -31.56670000     -67.92920000
H      -44.19480000     -30.76760000     -67.78850000
C      -43.05100000     -36.47830000     -69.36490000
H      -42.07830000     -36.43130000     -68.80980000
H      -43.51950000     -37.49250000     -69.26490000
S      -43.07910000     -30.69670000     -70.01520000
S      -42.62530000     -36.42770000     -71.19680000
C      -44.66550000     -30.75030000     -70.87770000
H      -45.30230000     -31.45380000     -70.31480000
H      -45.23580000     -29.88160000     -70.71450000
C      -44.28030000     -36.04450000     -71.96060000
H      -45.06540000     -36.43810000     -71.33090000
H      -44.28320000     -36.59770000     -72.83120000
C      -44.57580000     -34.57530000     -72.09800000
H      -44.48210000     -34.05990000     -71.08360000
H      -43.76240000     -34.05390000     -72.70750000
C      -44.47690000     -31.09910000     -72.42440000
H      -43.67500000     -31.89020000     -72.46210000
H      -43.96760000     -30.22000000     -72.88760000
C      -45.85990000     -31.47400000     -72.90400000
C      -46.74530000     -30.61620000     -73.57890000
C      -46.48700000     -32.86570000     -72.89740000
H      -46.43960000     -29.63970000     -73.89850000
C      -47.79490000     -32.82340000     -73.41080000
C      -45.92860000     -34.23010000     -72.65940000
C      -46.90860000     -35.16070000     -72.89770000
S      -48.39360000     -31.24380000     -73.89470000
S      -48.49660000     -34.45320000     -73.47980000
H      -46.68490000     -36.20560000     -72.96010000
