40
Properties=species:S:1:pos:R:3 #=T CELL(abcABC):=T 1.889726e+02=T 90.00000=T Traj:=T positionsangstrom=T Step:=T 0=T Bead:=T pbc="F F F"
C      -45.36800000     -35.54230000     -68.44080000
C      -44.05760000     -35.34380000     -68.83290000
C      -43.44580000     -34.14770000     -68.59730000
C      -44.19470000     -33.03190000     -68.13360000
C      -45.49930000     -33.27600000     -67.71030000
C      -46.06460000     -34.56540000     -67.81660000
H      -45.84920000     -36.48240000     -68.65970000
H      -42.42160000     -33.94880000     -68.94250000
H      -46.04100000     -32.44690000     -67.14420000
H      -47.15680000     -34.64960000     -67.60240000
C      -43.64010000     -31.66580000     -68.27700000
H      -42.76010000     -31.45050000     -67.77000000
H      -44.40050000     -30.91770000     -68.03020000
C      -43.30900000     -36.50060000     -69.46510000
H      -42.37400000     -36.70180000     -68.96930000
H      -43.87970000     -37.43910000     -69.44920000
S      -43.02580000     -31.39500000     -70.06010000
S      -42.66770000     -36.13790000     -71.23210000
C      -44.65780000     -31.20910000     -70.87570000
H      -45.32700000     -31.99210000     -70.51700000
H      -45.11730000     -30.35960000     -70.36410000
C      -44.25680000     -35.88310000     -72.24620000
H      -44.95290000     -36.32650000     -71.60900000
H      -44.24520000     -36.43610000     -73.24610000
C      -44.54940000     -34.35290000     -72.44010000
H      -44.41770000     -33.83230000     -71.48530000
H      -43.83070000     -33.87890000     -73.10250000
C      -44.56410000     -30.96660000     -72.32130000
H      -43.75660000     -31.58400000     -72.66080000
H      -44.17540000     -29.96510000     -72.64930000
C      -45.88160000     -31.36640000     -73.03650000
C      -46.73630000     -30.43640000     -73.56770000
C      -46.42670000     -32.66110000     -73.08710000
H      -46.49450000     -29.36270000     -73.73640000
C      -47.76410000     -32.65170000     -73.52970000
C      -45.94450000     -34.04910000     -72.91790000
C      -46.90480000     -34.98640000     -73.14600000
S      -48.34930000     -30.98020000     -73.94370000
S      -48.39570000     -34.25920000     -73.75270000
H      -46.81010000     -36.04500000     -73.31170000
