40
Properties=species:S:1:pos:R:3 #=T CELL(abcABC):=T 1.889726e+02=T 90.00000=T Traj:=T positionsangstrom=T Step:=T 0=T Bead:=T pbc="F F F"
C      -44.94940000     -35.33810000     -67.78810000
C      -43.85530000     -35.16300000     -68.60490000
C      -43.41620000     -33.86170000     -68.85320000
C      -44.00760000     -32.76830000     -68.22760000
C      -45.22410000     -32.98130000     -67.45260000
C      -45.68480000     -34.31460000     -67.31660000
H      -45.40300000     -36.36290000     -67.74630000
H      -42.62450000     -33.84210000     -69.67840000
H      -45.77240000     -32.18400000     -66.89240000
H      -46.66450000     -34.50330000     -66.84400000
C      -43.51170000     -31.36850000     -68.38540000
H      -42.46230000     -31.25770000     -68.07720000
H      -44.16010000     -30.72380000     -67.86370000
C      -43.10590000     -36.27490000     -69.28690000
H      -42.14380000     -36.45360000     -68.79200000
H      -43.63990000     -37.25630000     -69.25700000
S      -43.43880000     -30.69570000     -70.15860000
S      -42.57540000     -35.90810000     -71.08730000
C      -45.14140000     -30.84100000     -70.87310000
H      -45.62840000     -31.70470000     -70.45220000
H      -45.81610000     -29.99400000     -70.80760000
C      -44.11200000     -35.74260000     -72.08920000
H      -44.88770000     -36.08500000     -71.45440000
H      -44.01110000     -36.35300000     -72.93730000
C      -44.38360000     -34.37780000     -72.54190000
H      -44.24760000     -33.78720000     -71.71320000
H      -43.69460000     -34.08360000     -73.38180000
C      -44.93420000     -31.11560000     -72.28680000
H      -44.13950000     -31.81360000     -72.48200000
H      -44.64010000     -30.25600000     -72.89150000
C      -46.20140000     -31.57050000     -72.96730000
C      -47.23710000     -30.73070000     -73.37310000
C      -46.57690000     -32.91030000     -73.18820000
H      -47.24020000     -29.63510000     -73.66550000
C      -47.80460000     -33.15780000     -73.74910000
C      -45.77890000     -34.17590000     -73.07790000
C      -46.49680000     -35.21340000     -73.55740000
S      -48.67610000     -31.65850000     -74.00270000
S      -48.08290000     -34.82240000     -74.08050000
H      -46.23400000     -36.28850000     -73.28000000
