40
Properties=species:S:1:pos:R:3 #=T CELL(abcABC):=T 1.889726e+02=T 90.00000=T Traj:=T positionsangstrom=T Step:=T 0=T Bead:=T pbc="F F F"
C      -44.81230000     -35.63620000     -67.83900000
C      -43.75550000     -35.23420000     -68.69280000
C      -43.54960000     -33.84520000     -68.80470000
C      -44.28810000     -32.88230000     -68.13010000
C      -45.33830000     -33.28190000     -67.30800000
C      -45.59160000     -34.65670000     -67.16140000
H      -44.95010000     -36.72320000     -67.55110000
H      -42.74270000     -33.38580000     -69.45750000
H      -46.01430000     -32.54180000     -66.87890000
H      -46.33210000     -34.96180000     -66.40650000
C      -43.83830000     -31.36100000     -68.18550000
H      -42.86090000     -31.33510000     -67.67450000
H      -44.54420000     -30.72640000     -67.60440000
C      -42.76050000     -36.15040000     -69.31600000
H      -41.77650000     -36.15900000     -68.72030000
H      -43.19160000     -37.13000000     -69.26580000
S      -43.60230000     -30.69700000     -69.93870000
S      -42.35040000     -35.65710000     -71.08580000
C      -45.28260000     -30.98590000     -70.78660000
H      -45.66930000     -31.98760000     -70.53090000
H      -45.94640000     -30.27510000     -70.41050000
C      -43.97900000     -35.66010000     -72.01140000
H      -44.50700000     -36.44280000     -71.48480000
H      -43.74940000     -36.04050000     -72.99990000
C      -44.70850000     -34.28460000     -71.96430000
H      -45.05550000     -34.12400000     -70.95030000
H      -43.96220000     -33.48970000     -72.09430000
C      -45.13710000     -30.85390000     -72.35650000
H      -44.26400000     -31.33970000     -72.78680000
H      -45.02500000     -29.82390000     -72.64440000
C      -46.27650000     -31.49330000     -73.06590000
C      -47.17290000     -30.73740000     -73.68170000
C      -46.50450000     -32.89510000     -73.28440000
H      -47.11010000     -29.63630000     -73.74140000
C      -47.65790000     -33.16130000     -74.10660000
C      -45.99750000     -34.16670000     -72.81120000
C      -46.69130000     -35.27840000     -73.18830000
S      -48.36520000     -31.66500000     -74.61050000
S      -48.08310000     -34.82560000     -74.17230000
H      -46.58710000     -36.25130000     -72.82080000
