40
Properties=species:S:1:pos:R:3 #=T CELL(abcABC):=T 1.889726e+02=T 90.00000=T Traj:=T positionsangstrom=T Step:=T 0=T Bead:=T pbc="F F F"
C      -44.81820000     -35.53880000     -67.85150000
C      -43.83990000     -35.12750000     -68.79350000
C      -43.50620000     -33.71050000     -68.81700000
C      -44.27330000     -32.80420000     -68.13610000
C      -45.26860000     -33.20090000     -67.26490000
C      -45.50780000     -34.57600000     -67.06040000
H      -45.00130000     -36.56210000     -67.76000000
H      -42.67400000     -33.35910000     -69.35200000
H      -45.81120000     -32.46480000     -66.67980000
H      -46.35440000     -34.83140000     -66.43410000
C      -44.02850000     -31.32950000     -68.23870000
H      -43.24570000     -30.96910000     -67.54720000
H      -44.87470000     -30.77470000     -67.94800000
C      -43.05780000     -36.20340000     -69.50900000
H      -42.29920000     -36.62100000     -68.92890000
H      -43.76530000     -37.05980000     -69.77130000
S      -43.61760000     -30.75890000     -69.92950000
S      -42.30680000     -35.68630000     -71.07470000
C      -45.22200000     -31.08610000     -70.68340000
H      -45.70660000     -31.98530000     -70.27200000
H      -45.98570000     -30.27970000     -70.50610000
C      -43.86260000     -35.65070000     -72.13060000
H      -44.57760000     -36.44650000     -71.81040000
H      -43.55390000     -35.72830000     -73.20700000
C      -44.55960000     -34.29260000     -72.13460000
H      -44.74290000     -33.92140000     -71.12100000
H      -43.80690000     -33.68320000     -72.69390000
C      -45.03100000     -31.06780000     -72.33710000
H      -44.20170000     -31.74200000     -72.58870000
H      -44.78090000     -30.04020000     -72.66830000
C      -46.23140000     -31.59940000     -73.04910000
C      -47.09350000     -30.74490000     -73.66760000
C      -46.57520000     -32.97420000     -73.14660000
H      -46.91970000     -29.68250000     -73.60700000
C      -47.75380000     -33.15070000     -73.87700000
C      -45.90460000     -34.22770000     -72.89950000
C      -46.55410000     -35.33120000     -73.45230000
S      -48.44360000     -31.58640000     -74.35690000
S      -48.11720000     -34.79090000     -74.23790000
H      -46.33570000     -36.31560000     -73.53150000
