40
Properties=species:S:1:pos:R:3 #=T CELL(abcABC):=T 1.889726e+02=T 90.00000=T Traj:=T positionsangstrom=T Step:=T 0=T Bead:=T pbc="F F F"
C      -44.90700000     -35.43020000     -67.79440000
C      -43.97060000     -35.00050000     -68.77130000
C      -43.62590000     -33.65210000     -68.82480000
C      -44.29890000     -32.69100000     -68.02410000
C      -45.31180000     -33.10070000     -67.18760000
C      -45.58400000     -34.47670000     -67.04560000
H      -45.22100000     -36.42570000     -67.73300000
H      -42.99410000     -33.27590000     -69.50920000
H      -45.82470000     -32.36150000     -66.60240000
H      -46.34820000     -34.82990000     -66.36480000
C      -43.96740000     -31.26650000     -68.13410000
H      -43.02080000     -31.09220000     -67.60880000
H      -44.77560000     -30.68640000     -67.66690000
C      -43.20350000     -36.09410000     -69.51700000
H      -42.23050000     -36.07560000     -69.00530000
H      -43.60080000     -37.16130000     -69.38590000
S      -43.53840000     -30.65880000     -69.83490000
S      -42.51650000     -35.79180000     -71.19310000
C      -45.07450000     -31.26990000     -70.83160000
H      -45.13500000     -32.31430000     -70.52930000
H      -45.90860000     -30.77020000     -70.35440000
C      -43.84690000     -35.80160000     -72.40180000
H      -44.51970000     -36.53170000     -72.06510000
H      -43.48410000     -36.13530000     -73.35410000
C      -44.43060000     -34.42850000     -72.42660000
H      -44.39330000     -34.03940000     -71.34990000
H      -43.76890000     -33.76050000     -72.91760000
C      -44.84500000     -31.06720000     -72.37190000
H      -43.99560000     -31.61630000     -72.73290000
H      -44.69710000     -30.00440000     -72.58830000
C      -46.09660000     -31.57050000     -73.06350000
C      -47.16210000     -30.75720000     -73.44470000
C      -46.40170000     -32.99220000     -73.37900000
H      -47.08720000     -29.75510000     -73.20650000
C      -47.67130000     -33.13700000     -73.91640000
C      -45.77760000     -34.28830000     -73.03380000
C      -46.62820000     -35.37580000     -73.37510000
S      -48.51230000     -31.60830000     -74.21980000
S      -48.06360000     -34.82100000     -74.16420000
H      -46.38710000     -36.37910000     -73.50670000
