40
Properties=species:S:1:pos:R:3 #=T CELL(abcABC):=T 1.889726e+02=T 90.00000=T Traj:=T positionsangstrom=T Step:=T 0=T Bead:=T pbc="F F F"
C      -42.54710000     -31.16010000     -73.85450000
C      -43.93150000     -31.40050000     -73.85820000
C      -44.69980000     -30.61380000     -72.97510000
C      -44.06750000     -29.76080000     -72.06660000
C      -42.65600000     -29.52670000     -72.14980000
C      -41.86500000     -30.29510000     -73.04030000
H      -42.03390000     -31.80720000     -74.51450000
H      -45.76980000     -30.67580000     -72.89500000
H      -42.32090000     -28.77040000     -71.37180000
H      -40.71960000     -30.36020000     -73.15070000
C      -44.83120000     -29.13540000     -70.92910000
H      -45.82070000     -28.70370000     -71.30450000
H      -44.18760000     -28.40520000     -70.41490000
C      -44.58650000     -32.48250000     -74.56060000
H      -45.52680000     -32.13880000     -75.01080000
H      -44.01970000     -33.02080000     -75.38480000
S      -45.30340000     -30.21060000     -69.44050000
S      -45.16220000     -33.86770000     -73.33560000
C      -45.71850000     -31.90840000     -70.17630000
H      -46.76230000     -31.90870000     -70.58290000
H      -44.91150000     -32.06110000     -70.92290000
C      -43.63220000     -34.35340000     -72.52540000
H      -42.78620000     -33.67640000     -72.62360000
H      -43.26660000     -35.24130000     -73.06650000
C      -43.69780000     -34.66780000     -70.97990000
H      -42.72750000     -35.14750000     -70.80720000
H      -43.74060000     -33.74050000     -70.41920000
C      -45.85390000     -32.92660000     -69.03270000
H      -46.49230000     -32.50780000     -68.16580000
H      -44.84040000     -33.23390000     -68.71900000
C      -46.68500000     -34.15760000     -69.52590000
C      -47.99680000     -34.35450000     -69.25310000
C      -46.17680000     -35.35580000     -70.17000000
H      -48.58200000     -33.68010000     -68.71090000
C      -47.07500000     -36.39950000     -70.24300000
C      -44.84240000     -35.64570000     -70.70920000
C      -44.85760000     -36.89660000     -71.25560000
S      -48.63310000     -35.86400000     -69.72150000
S      -46.33880000     -37.84370000     -71.02640000
H      -43.99500000     -37.41490000     -71.75280000
