40
Properties=species:S:1:pos:R:3 #=T CELL(abcABC):=T 1.889726e+02=T 90.00000=T Traj:=T positionsangstrom=T Step:=T 0=T Bead:=T pbc="F F F"
C      -47.80480000     -35.45060000     -69.03530000
C      -46.78630000     -36.06390000     -69.83530000
C      -45.40320000     -35.84910000     -69.46080000
C      -45.10780000     -35.01100000     -68.35880000
C      -46.13930000     -34.38010000     -67.63590000
C      -47.50170000     -34.56240000     -67.94790000
H      -48.83660000     -35.62300000     -69.43400000
H      -44.69360000     -36.44660000     -70.03460000
H      -45.93260000     -33.76500000     -66.85000000
H      -48.35930000     -34.21050000     -67.42440000
C      -43.68430000     -34.62140000     -68.04950000
H      -42.99580000     -35.02760000     -68.83710000
H      -43.37020000     -35.19690000     -67.13800000
C      -47.11580000     -37.02260000     -70.97500000
H      -46.97740000     -38.00560000     -70.66810000
H      -48.13220000     -36.86220000     -71.34220000
S      -43.46020000     -32.84040000     -67.72330000
S      -45.93210000     -36.98490000     -72.38950000
C      -43.93010000     -31.84200000     -69.26470000
H      -44.44120000     -31.00030000     -68.90980000
H      -42.99650000     -31.42450000     -69.66950000
C      -45.40840000     -35.23200000     -72.74040000
H      -44.99560000     -35.18730000     -73.71040000
H      -44.56930000     -34.97070000     -72.00520000
C      -46.49940000     -34.12160000     -72.79990000
H      -47.40640000     -34.56750000     -73.29480000
H      -46.87350000     -33.85400000     -71.78890000
C      -44.75810000     -32.49350000     -70.38990000
H      -45.78030000     -32.66930000     -70.06850000
H      -44.24440000     -33.44000000     -70.48970000
C      -44.64050000     -31.66800000     -71.65270000
C      -43.89800000     -30.47180000     -71.64820000
C      -45.32020000     -31.86380000     -72.91830000
H      -43.68970000     -29.88810000     -70.77280000
C      -45.00660000     -30.86180000     -73.83850000
C      -46.05440000     -32.93750000     -73.54930000
C      -46.25120000     -32.71180000     -74.92250000
S      -43.87410000     -29.68700000     -73.22550000
S      -45.62100000     -31.19650000     -75.47220000
H      -46.82480000     -33.36900000     -75.54710000
