40
Properties=species:S:1:pos:R:3 #=T CELL(abcABC):=T 1.889726e+02=T 90.00000=T Traj:=T positionsangstrom=T Step:=T 0=T Bead:=T pbc="F F F"
C      -45.28390000     -35.35640000     -68.39320000
C      -43.99740000     -34.85450000     -68.59220000
C      -43.71450000     -33.50920000     -68.36760000
C      -44.70050000     -32.55090000     -68.15330000
C      -46.00240000     -33.08140000     -68.06000000
C      -46.21390000     -34.42590000     -68.11470000
H      -45.51080000     -36.48040000     -68.43470000
H      -42.66620000     -33.13950000     -68.57720000
H      -46.71160000     -32.26940000     -67.95390000
H      -47.20430000     -34.74990000     -67.80570000
C      -44.42170000     -31.05120000     -68.12470000
H      -43.60770000     -30.60650000     -67.49530000
H      -45.30070000     -30.45440000     -67.77300000
C      -42.85910000     -35.71040000     -68.91110000
H      -41.93910000     -35.51980000     -68.32120000
H      -43.19800000     -36.75460000     -68.79530000
S      -43.96320000     -30.36420000     -69.83220000
S      -42.24670000     -35.45620000     -70.67700000
C      -45.44780000     -30.76470000     -70.88150000
H      -46.01740000     -31.56660000     -70.32810000
H      -46.18880000     -29.91280000     -70.94050000
C      -43.79670000     -35.62850000     -71.57610000
H      -44.54860000     -36.16190000     -70.97830000
H      -43.55940000     -36.19480000     -72.46160000
C      -44.20620000     -34.29190000     -72.17490000
H      -44.26550000     -33.54760000     -71.36860000
H      -43.42840000     -33.99040000     -72.85220000
C      -44.98800000     -31.12480000     -72.28280000
H      -44.04640000     -31.74630000     -72.21360000
H      -44.70940000     -30.21750000     -72.76450000
C      -46.15050000     -31.77870000     -73.05750000
C      -47.19700000     -31.00880000     -73.66030000
C      -46.27990000     -33.18590000     -73.26180000
H      -47.29600000     -29.92250000     -73.75860000
C      -47.46450000     -33.55440000     -73.89990000
C      -45.49940000     -34.35530000     -72.87840000
C      -45.99440000     -35.53100000     -73.41300000
S      -48.35730000     -32.13890000     -74.42530000
S      -47.45590000     -35.26410000     -74.39210000
H      -45.68040000     -36.63090000     -73.28650000
