40
Properties=species:S:1:pos:R:3 #=T CELL(abcABC):=T 1.889726e+02=T 90.00000=T Traj:=T positionsangstrom=T Step:=T 0=T Bead:=T pbc="F F F"
C      -45.16170000     -34.59070000     -67.28760000
C      -43.95900000     -34.22070000     -67.95500000
C      -43.77440000     -32.81980000     -68.30690000
C      -44.76920000     -31.85630000     -68.05960000
C      -45.96440000     -32.32130000     -67.39970000
C      -46.15760000     -33.62370000     -66.99590000
H      -45.20880000     -35.67080000     -67.01050000
H      -42.80250000     -32.53180000     -68.81000000
H      -46.84610000     -31.64390000     -67.19070000
H      -47.06940000     -33.84240000     -66.45550000
C      -44.63940000     -30.43240000     -68.49110000
H      -43.68470000     -29.97330000     -67.98280000
H      -45.41880000     -29.75380000     -68.26500000
C      -42.92900000     -35.29140000     -68.29970000
H      -42.01380000     -35.33040000     -67.75280000
H      -43.35380000     -36.34630000     -68.24270000
S      -44.38950000     -30.17260000     -70.38840000
S      -42.31920000     -35.17040000     -70.01300000
C      -45.67130000     -31.17520000     -71.23340000
H      -45.76130000     -32.15320000     -70.71280000
H      -46.62640000     -30.70330000     -71.08620000
C      -43.87320000     -35.63460000     -70.93340000
H      -44.73570000     -35.71790000     -70.26180000
H      -43.86430000     -36.58620000     -71.40740000
C      -44.18700000     -34.47020000     -72.04050000
H      -44.18690000     -33.50110000     -71.48410000
H      -43.22380000     -34.34780000     -72.64850000
C      -45.28200000     -31.28020000     -72.75220000
H      -44.24840000     -31.75300000     -72.86760000
H      -45.20020000     -30.25430000     -73.12130000
C      -46.22140000     -32.14840000     -73.50130000
C      -47.21900000     -31.60990000     -74.36710000
C      -46.19110000     -33.60180000     -73.56410000
H      -47.57570000     -30.58210000     -74.39160000
C      -47.12260000     -34.06600000     -74.48460000
C      -45.37260000     -34.66730000     -72.99580000
C      -45.72750000     -35.91690000     -73.45680000
S      -48.09390000     -32.86590000     -75.15530000
S      -47.17590000     -35.84790000     -74.49720000
H      -45.42150000     -36.93690000     -73.27820000
