40
Properties=species:S:1:pos:R:3 #=T CELL(abcABC):=T 1.889726e+02=T 90.00000=T Traj:=T positionsangstrom=T Step:=T 0=T Bead:=T pbc="F F F"
C      -45.18040000     -34.44940000     -67.31670000
C      -43.97960000     -34.09220000     -67.95900000
C      -43.92240000     -32.72270000     -68.38400000
C      -44.97810000     -31.82820000     -68.26940000
C      -46.13120000     -32.18950000     -67.46300000
C      -46.24220000     -33.49710000     -66.95200000
H      -45.42800000     -35.42420000     -67.02070000
H      -43.03150000     -32.40870000     -68.85940000
H      -46.94660000     -31.48770000     -67.32650000
H      -47.04120000     -33.96220000     -66.45690000
C      -44.99840000     -30.42250000     -68.77640000
H      -44.28990000     -29.88700000     -68.17740000
H      -46.04950000     -29.96420000     -68.68530000
C      -42.88060000     -35.11480000     -68.25340000
H      -42.01520000     -34.81960000     -67.61780000
H      -43.28630000     -36.08040000     -67.93060000
S      -44.22990000     -30.33270000     -70.42260000
S      -42.38100000     -35.12540000     -70.00520000
C      -45.53250000     -31.20430000     -71.32920000
H      -45.40700000     -32.21500000     -71.09680000
H      -46.57050000     -30.88480000     -71.19880000
C      -44.02150000     -35.24320000     -70.73550000
H      -44.80470000     -34.94920000     -70.06300000
H      -44.30630000     -36.25280000     -71.02630000
C      -44.12700000     -34.45160000     -71.99780000
H      -44.01670000     -33.38160000     -71.74210000
H      -43.19490000     -34.74130000     -72.57580000
C      -45.16850000     -31.20740000     -72.85410000
H      -44.12560000     -31.36010000     -73.01990000
H      -45.38460000     -30.21530000     -73.26940000
C      -46.02990000     -32.25470000     -73.58590000
C      -47.08230000     -31.78530000     -74.36150000
C      -46.07420000     -33.66750000     -73.56210000
H      -47.30970000     -30.74480000     -74.53290000
C      -47.04250000     -34.19630000     -74.38510000
C      -45.37800000     -34.73730000     -72.85110000
C      -45.94180000     -35.94930000     -73.06970000
S      -47.87120000     -32.99460000     -75.36970000
S      -47.25710000     -35.93470000     -74.26090000
H      -45.82430000     -36.82880000     -72.44890000
