40
Properties=species:S:1:pos:R:3 #=T CELL(abcABC):=T 1.889726e+02=T 90.00000=T Traj:=T positionsangstrom=T Step:=T 0=T Bead:=T pbc="F F F"
C      -48.00610000     -35.42610000     -69.55970000
C      -46.83500000     -36.19090000     -69.91180000
C      -45.59570000     -35.85980000     -69.36340000
C      -45.49320000     -34.88090000     -68.42340000
C      -46.66230000     -34.18620000     -67.97130000
C      -47.87170000     -34.43840000     -68.55110000
H      -48.98620000     -35.61800000     -70.04290000
H      -44.78680000     -36.59220000     -69.59160000
H      -46.57200000     -33.48870000     -67.12400000
H      -48.78480000     -33.80410000     -68.23810000
C      -44.17500000     -34.53800000     -67.71940000
H      -43.31950000     -35.04500000     -68.25670000
H      -44.12700000     -34.96230000     -66.73250000
C      -46.87100000     -37.28890000     -70.90690000
H      -46.28520000     -38.09110000     -70.48760000
H      -47.89390000     -37.56000000     -71.18720000
S      -43.97170000     -32.72370000     -67.60000000
S      -46.01560000     -36.91790000     -72.62930000
C      -43.36470000     -32.08370000     -69.21670000
H      -43.12550000     -30.98660000     -69.02050000
H      -42.38090000     -32.55650000     -69.52480000
C      -45.31740000     -35.24600000     -72.53220000
H      -44.92840000     -35.01570000     -73.49190000
H      -44.45920000     -35.07780000     -71.85330000
C      -46.33420000     -34.11150000     -72.28050000
H      -47.38280000     -34.32320000     -72.50050000
H      -46.36340000     -33.79190000     -71.22410000
C      -44.45940000     -32.24880000     -70.34770000
H      -45.40030000     -31.88840000     -69.91950000
H      -44.48690000     -33.23800000     -70.63920000
C      -44.27980000     -31.42790000     -71.64360000
C      -43.53480000     -30.30430000     -71.79230000
C      -45.00500000     -31.81150000     -72.82070000
H      -42.93580000     -29.78080000     -71.08590000
C      -44.73020000     -31.01160000     -73.90140000
C      -45.86470000     -32.93890000     -73.12710000
C      -46.21180000     -32.86400000     -74.46030000
S      -43.68730000     -29.67220000     -73.45700000
S      -45.54350000     -31.50960000     -75.37270000
H      -46.69840000     -33.70840000     -75.04320000
