40
Properties=species:S:1:pos:R:3 #=T CELL(abcABC):=T 1.889726e+02=T 90.00000=T Traj:=T positionsangstrom=T Step:=T 0=T Bead:=T pbc="F F F"
C      -45.26570000     -34.63320000     -67.39740000
C      -44.11080000     -34.26730000     -68.14860000
C      -43.85940000     -32.89870000     -68.46260000
C      -44.73920000     -31.90280000     -68.03280000
C      -45.92740000     -32.30810000     -67.41530000
C      -46.11010000     -33.61290000     -67.04640000
H      -45.44700000     -35.61330000     -67.06820000
H      -42.87620000     -32.66570000     -68.96510000
H      -46.62400000     -31.50690000     -67.09050000
H      -46.97340000     -33.75170000     -66.39120000
C      -44.56980000     -30.42340000     -68.40550000
H      -43.74070000     -29.98880000     -67.86420000
H      -45.50070000     -29.92240000     -68.08700000
C      -42.96130000     -35.22580000     -68.38870000
H      -42.09210000     -34.89970000     -67.84920000
H      -43.36000000     -36.19350000     -67.97930000
S      -44.21200000     -30.15400000     -70.27340000
S      -42.39820000     -35.29490000     -70.21120000
C      -45.56950000     -31.12350000     -71.17920000
H      -45.69180000     -32.13740000     -70.72500000
H      -46.52180000     -30.57840000     -71.04050000
C      -43.93820000     -35.60030000     -71.21050000
H      -44.68480000     -35.75740000     -70.46500000
H      -43.68920000     -36.56460000     -71.72970000
C      -44.21190000     -34.36600000     -72.08360000
H      -44.49910000     -33.46260000     -71.59940000
H      -43.47570000     -34.05140000     -72.81470000
C      -45.24620000     -31.26250000     -72.68150000
H      -44.29550000     -31.68500000     -72.73610000
H      -45.15580000     -30.28970000     -73.21210000
C      -46.18060000     -32.13510000     -73.36900000
C      -47.28590000     -31.62080000     -74.11780000
C      -46.17820000     -33.60620000     -73.48770000
H      -47.60410000     -30.54320000     -74.02990000
C      -47.13190000     -34.04180000     -74.37390000
C      -45.42840000     -34.71120000     -72.97010000
C      -45.78190000     -35.95380000     -73.39370000
S      -48.16710000     -32.83190000     -74.96420000
S      -47.08770000     -35.82420000     -74.59580000
H      -45.35210000     -36.87830000     -73.14700000
