40
Properties=species:S:1:pos:R:3 #=T CELL(abcABC):=T 1.889726e+02=T 90.00000=T Traj:=T positionsangstrom=T Step:=T 0=T Bead:=T pbc="F F F"
C      -48.01320000     -35.54730000     -69.76830000
C      -46.83750000     -36.30020000     -70.00400000
C      -45.64970000     -35.91960000     -69.29800000
C      -45.65800000     -34.77200000     -68.49210000
C      -46.87980000     -34.15920000     -68.10850000
C      -48.05440000     -34.54120000     -68.78160000
H      -48.87720000     -35.75330000     -70.41180000
H      -44.74180000     -36.36980000     -69.62810000
H      -46.95600000     -33.38320000     -67.41000000
H      -48.99770000     -33.98550000     -68.51530000
C      -44.35750000     -34.31490000     -67.72880000
H      -43.44820000     -34.80610000     -68.04070000
H      -44.60240000     -34.66610000     -66.68300000
C      -46.90600000     -37.35650000     -71.01910000
H      -46.46980000     -38.32640000     -70.65630000
H      -47.97620000     -37.59980000     -71.20620000
S      -43.99210000     -32.54960000     -67.50610000
S      -46.06760000     -37.02600000     -72.70060000
C      -43.32720000     -32.04360000     -69.16430000
H      -42.89290000     -31.10100000     -68.95580000
H      -42.57310000     -32.78820000     -69.37850000
C      -45.34830000     -35.32530000     -72.50850000
H      -44.66700000     -35.24560000     -73.41210000
H      -44.66020000     -35.29630000     -71.63120000
C      -46.34490000     -34.12520000     -72.34450000
H      -47.27820000     -34.44070000     -72.76730000
H      -46.50080000     -33.86440000     -71.31820000
C      -44.50900000     -32.02650000     -70.18620000
H      -45.26540000     -31.39500000     -69.74100000
H      -44.98990000     -33.02180000     -70.16870000
C      -44.20690000     -31.45890000     -71.54470000
C      -43.40400000     -30.35390000     -71.76560000
C      -44.86470000     -31.90530000     -72.72290000
H      -43.08370000     -29.63670000     -71.02410000
C      -44.59880000     -31.07450000     -73.84960000
C      -45.85620000     -32.94260000     -73.11360000
C      -46.29120000     -32.74890000     -74.41470000
S      -43.44970000     -29.80200000     -73.43250000
S      -45.45420000     -31.44120000     -75.31800000
H      -47.13230000     -33.29610000     -74.85250000
