40
Properties=species:S:1:pos:R:3 #=T CELL(abcABC):=T 1.889726e+02=T 90.00000=T Traj:=T positionsangstrom=T Step:=T 0=T Bead:=T pbc="F F F"
C      -47.87780000     -36.18910000     -69.85030000
C      -46.48190000     -36.17950000     -70.14470000
C      -45.64610000     -35.33200000     -69.45970000
C      -46.08020000     -34.70600000     -68.28430000
C      -47.46550000     -34.74530000     -68.00140000
C      -48.34720000     -35.48470000     -68.75740000
H      -48.43110000     -36.91290000     -70.44340000
H      -44.68840000     -35.17070000     -69.86160000
H      -47.90920000     -34.31690000     -67.07180000
H      -49.40840000     -35.44540000     -68.46760000
C      -45.14560000     -33.93750000     -67.35510000
H      -44.12300000     -33.98950000     -67.67090000
H      -45.25980000     -34.33760000     -66.35680000
C      -46.04760000     -37.00390000     -71.32220000
H      -45.02560000     -36.84150000     -71.61130000
H      -46.15030000     -38.11950000     -71.14290000
S      -45.57820000     -32.12370000     -67.40150000
S      -47.00610000     -36.81040000     -72.94560000
C      -44.80960000     -31.43860000     -68.93130000
H      -44.96040000     -30.39330000     -68.99500000
H      -43.74520000     -31.54840000     -68.69840000
C      -46.07730000     -35.34870000     -73.60980000
H      -46.36830000     -35.26870000     -74.64660000
H      -45.08720000     -35.75900000     -73.73030000
C      -46.03090000     -34.10310000     -72.80300000
H      -47.07080000     -33.69400000     -72.85180000
H      -45.78420000     -34.35870000     -71.78320000
C      -45.18240000     -32.01860000     -70.30950000
H      -46.24380000     -31.92650000     -70.44130000
H      -45.06870000     -33.05610000     -70.30630000
C      -44.35350000     -31.37980000     -71.38740000
C      -43.70440000     -30.17740000     -71.40170000
C      -44.33260000     -31.99570000     -72.70560000
H      -43.40720000     -29.57910000     -70.58240000
C      -43.49580000     -31.31040000     -73.54250000
C      -45.06670000     -33.07920000     -73.37090000
C      -44.68440000     -33.11570000     -74.68220000
S      -42.73580000     -29.87720000     -72.88960000
S      -43.65920000     -31.78610000     -75.17450000
H      -45.19200000     -33.80200000     -75.35270000
