40
Properties=species:S:1:pos:R:3 #=T CELL(abcABC):=T 1.889726e+02=T 90.00000=T Traj:=T positionsangstrom=T Step:=T 0=T Bead:=T pbc="F F F"
C      -48.04640000     -36.27880000     -69.84090000
C      -46.65890000     -36.30380000     -70.11000000
C      -45.74740000     -35.54170000     -69.29700000
C      -46.19920000     -34.66760000     -68.26470000
C      -47.57330000     -34.78290000     -68.01170000
C      -48.49450000     -35.51860000     -68.75410000
H      -48.72620000     -36.63770000     -70.58510000
H      -44.66210000     -35.68630000     -69.43020000
H      -48.07890000     -34.09140000     -67.26790000
H      -49.54140000     -35.44550000     -68.48080000
C      -45.22340000     -33.84500000     -67.41990000
H      -44.20060000     -33.95160000     -67.84000000
H      -45.17720000     -34.29250000     -66.40290000
C      -46.06310000     -37.07320000     -71.23580000
H      -45.01770000     -36.64080000     -71.28800000
H      -46.03320000     -38.11380000     -71.08280000
S      -45.49380000     -32.00790000     -67.32880000
S      -46.98260000     -36.63070000     -72.87780000
C      -44.57260000     -31.44790000     -68.84010000
H      -44.56720000     -30.34620000     -68.76490000
H      -43.51390000     -31.83550000     -68.68760000
C      -45.96870000     -35.35440000     -73.73490000
H      -46.32740000     -35.06920000     -74.74100000
H      -44.91230000     -35.64540000     -73.75880000
C      -45.99860000     -34.04710000     -72.91070000
H      -47.03130000     -33.68350000     -72.77410000
H      -45.69860000     -34.14160000     -71.87510000
C      -45.15220000     -31.95940000     -70.19560000
H      -46.18720000     -31.44690000     -70.33810000
H      -45.39340000     -33.00870000     -70.25750000
C      -44.40660000     -31.50840000     -71.43590000
C      -43.57730000     -30.45820000     -71.33200000
C      -44.52590000     -31.94370000     -72.83910000
H      -43.21460000     -30.06460000     -70.40750000
C      -43.64890000     -31.24260000     -73.64700000
C      -45.15130000     -33.00080000     -73.57990000
C      -44.69600000     -33.10170000     -74.88710000
S      -42.76790000     -29.95890000     -72.81400000
S      -43.43210000     -31.82030000     -75.24590000
H      -44.84970000     -33.80860000     -75.65990000
