40
Properties=species:S:1:pos:R:3 #=T CELL(abcABC):=T 1.889726e+02=T 90.00000=T Traj:=T positionsangstrom=T Step:=T 0=T Bead:=T pbc="F F F"
C      -48.29040000     -35.99510000     -69.76130000
C      -46.93300000     -36.19860000     -70.09690000
C      -45.95140000     -35.58250000     -69.28870000
C      -46.26860000     -34.76920000     -68.16160000
C      -47.61180000     -34.64490000     -67.86780000
C      -48.59880000     -35.12610000     -68.70990000
H      -49.14740000     -36.12960000     -70.45060000
H      -44.85130000     -35.76020000     -69.47190000
H      -47.88330000     -33.89040000     -67.05920000
H      -49.63920000     -34.87320000     -68.48140000
C      -45.22010000     -34.08410000     -67.30910000
H      -44.16560000     -34.38680000     -67.38630000
H      -45.53200000     -34.16200000     -66.28160000
C      -46.47920000     -37.03420000     -71.29730000
H      -45.33600000     -37.00660000     -71.42150000
H      -46.78550000     -38.06610000     -71.19730000
S      -45.47060000     -32.28590000     -67.50030000
S      -47.17400000     -36.58260000     -72.97380000
C      -44.63060000     -31.47690000     -68.91180000
H      -45.07420000     -30.47060000     -68.82920000
H      -43.57210000     -31.34400000     -68.75140000
C      -45.78040000     -35.31050000     -73.32630000
H      -45.62250000     -35.36700000     -74.40520000
H      -44.87450000     -35.73970000     -72.99990000
C      -45.99940000     -33.95680000     -72.84670000
H      -47.03160000     -33.76110000     -73.10020000
H      -45.86340000     -33.95340000     -71.76530000
C      -44.88160000     -32.17540000     -70.27110000
H      -45.93680000     -32.09010000     -70.56820000
H      -44.67550000     -33.19840000     -70.09090000
C      -44.16370000     -31.53470000     -71.47650000
C      -43.14250000     -30.56140000     -71.31000000
C      -44.29060000     -31.95740000     -72.80980000
H      -43.03020000     -29.97600000     -70.42910000
C      -43.51530000     -31.16960000     -73.71830000
C      -44.98710000     -32.98690000     -73.45180000
C      -44.77540000     -32.94410000     -74.84170000
S      -42.50820000     -30.00860000     -72.83620000
S      -43.56100000     -31.75760000     -75.32800000
H      -45.12140000     -33.59420000     -75.60710000
