40
Properties=species:S:1:pos:R:3 #=T CELL(abcABC):=T 1.889726e+02=T 90.00000=T Traj:=T positionsangstrom=T Step:=T 0=T Bead:=T pbc="F F F"
C      -47.94130000     -30.80060000     -69.16670000
C      -48.23180000     -31.39900000     -70.39710000
C      -48.30450000     -32.79180000     -70.50840000
C      -48.17320000     -33.60560000     -69.39650000
C      -48.14140000     -33.06560000     -68.11520000
C      -48.02560000     -31.66270000     -68.06500000
H      -47.72140000     -29.78850000     -69.08450000
H      -48.51000000     -33.32840000     -71.34600000
H      -48.16060000     -33.78110000     -67.33510000
H      -47.96810000     -31.26190000     -67.07360000
C      -48.21670000     -35.09760000     -69.55620000
H      -49.12490000     -35.47680000     -70.09600000
H      -48.27860000     -35.59930000     -68.60040000
C      -48.31510000     -30.62590000     -71.75040000
H      -48.54250000     -31.41630000     -72.42980000
H      -48.95920000     -29.77140000     -71.77820000
S      -46.81840000     -35.71350000     -70.60960000
S      -46.73900000     -29.78430000     -72.04870000
C      -45.40610000     -35.70970000     -69.35050000
H      -45.91840000     -35.46090000     -68.44860000
H      -45.00680000     -36.71960000     -69.24570000
C      -45.53020000     -31.13110000     -72.67280000
H      -45.03500000     -30.76900000     -73.55540000
H      -46.23180000     -31.94410000     -72.94710000
C      -44.44310000     -31.60420000     -71.63310000
H      -43.95980000     -30.70430000     -71.27290000
H      -44.90980000     -32.17850000     -70.80490000
C      -44.36490000     -34.64710000     -69.69540000
H      -43.64380000     -34.53770000     -68.90830000
H      -44.95320000     -33.74550000     -69.72970000
C      -43.69330000     -34.99000000     -71.00610000
C      -43.34140000     -36.26020000     -71.34610000
C      -43.19760000     -33.96910000     -71.95760000
H      -43.50730000     -37.20100000     -70.78370000
C      -42.33150000     -34.57280000     -72.87880000
C      -43.46620000     -32.59690000     -72.32880000
C      -42.72850000     -32.17900000     -73.42930000
S      -42.24580000     -36.31760000     -72.71490000
S      -41.75720000     -33.45940000     -74.12280000
H      -42.61130000     -31.15440000     -73.81610000
