40
Properties=species:S:1:pos:R:3 #=T CELL(abcABC):=T 1.889726e+02=T 90.00000=T Traj:=T positionsangstrom=T Step:=T 0=T Bead:=T pbc="F F F"
C      -45.84410000     -33.52340000     -67.48740000
C      -44.55970000     -33.35140000     -67.97120000
C      -44.06380000     -32.18510000     -68.46760000
C      -44.92280000     -31.09390000     -68.63050000
C      -46.25700000     -31.24720000     -68.20090000
C      -46.69980000     -32.41840000     -67.61930000
H      -46.17280000     -34.45650000     -67.10810000
H      -43.00970000     -32.16570000     -68.78170000
H      -46.93680000     -30.40900000     -68.41690000
H      -47.74940000     -32.55410000     -67.27460000
C      -44.32010000     -29.85610000     -69.20120000
H      -43.60110000     -29.35200000     -68.42910000
H      -45.06950000     -29.05200000     -69.33340000
C      -43.61850000     -34.51230000     -67.82230000
H      -42.76770000     -34.33940000     -67.25330000
H      -44.11520000     -35.26280000     -67.22740000
S      -43.52120000     -30.20920000     -70.79190000
S      -43.13680000     -35.23480000     -69.40640000
C      -44.85950000     -31.05970000     -71.72770000
H      -45.54300000     -31.34030000     -70.95150000
H      -45.37730000     -30.30840000     -72.34030000
C      -44.68370000     -35.20590000     -70.41090000
H      -45.07740000     -34.17720000     -70.62420000
H      -45.47890000     -35.68320000     -69.90320000
C      -44.33310000     -35.71590000     -71.82780000
H      -43.52910000     -35.05800000     -72.12870000
H      -43.92140000     -36.69980000     -71.88370000
C      -44.35830000     -32.26970000     -72.51500000
H      -43.80620000     -32.98730000     -71.96540000
H      -43.63870000     -32.00620000     -73.34960000
C      -45.56550000     -32.87650000     -73.28080000
C      -46.31600000     -32.10070000     -74.08520000
C      -45.92340000     -34.33030000     -73.39250000
H      -46.16850000     -30.95470000     -74.19390000
C      -46.95870000     -34.48420000     -74.28710000
C      -45.49090000     -35.58090000     -72.80810000
C      -46.24290000     -36.63220000     -73.19870000
S      -47.57760000     -33.04110000     -74.99970000
S      -47.41550000     -36.15120000     -74.51720000
H      -46.21350000     -37.67540000     -72.93160000
