40
Properties=species:S:1:pos:R:3 #=T CELL(abcABC):=T 1.889726e+02=T 90.00000=T Traj:=T positionsangstrom=T Step:=T 0=T Bead:=T pbc="F F F"
C      -48.21430000     -35.68580000     -69.92810000
C      -46.87520000     -36.11540000     -70.11200000
C      -45.89310000     -35.49400000     -69.35950000
C      -46.22780000     -34.67040000     -68.28720000
C      -47.56720000     -34.26200000     -68.10070000
C      -48.52740000     -34.71840000     -68.98940000
H      -48.96370000     -36.06950000     -70.61820000
H      -44.86400000     -35.86540000     -69.55880000
H      -47.86650000     -33.65150000     -67.29620000
H      -49.56850000     -34.60590000     -68.72970000
C      -45.13090000     -34.01130000     -67.48570000
H      -44.10760000     -34.25380000     -67.88350000
H      -45.22150000     -34.27480000     -66.42300000
C      -46.41250000     -37.11790000     -71.13020000
H      -45.33030000     -37.13510000     -71.24020000
H      -46.84640000     -38.09140000     -70.90380000
S      -45.15110000     -32.19960000     -67.38230000
S      -47.13920000     -36.79180000     -72.82020000
C      -44.16510000     -31.50170000     -68.77590000
H      -44.31500000     -30.41090000     -68.65230000
H      -43.11670000     -31.78570000     -68.61260000
C      -45.87600000     -35.54720000     -73.45190000
H      -46.47870000     -35.27840000     -74.35930000
H      -45.02630000     -36.13400000     -73.83480000
C      -45.65750000     -34.28000000     -72.60970000
H      -46.57840000     -33.81600000     -72.36280000
H      -45.05120000     -34.40840000     -71.66050000
C      -44.74610000     -32.08490000     -70.06320000
H      -45.85810000     -32.04710000     -69.99440000
H      -44.46610000     -33.17110000     -70.10680000
C      -44.21500000     -31.50400000     -71.38870000
C      -43.28360000     -30.51800000     -71.38350000
C      -44.38390000     -32.04370000     -72.74970000
H      -42.97860000     -29.88180000     -70.56040000
C      -43.78460000     -31.27230000     -73.68830000
C      -44.99190000     -33.16000000     -73.42260000
C      -44.84640000     -33.10290000     -74.78360000
S      -42.79240000     -30.00540000     -72.98100000
S      -43.97280000     -31.76950000     -75.35650000
H      -45.22920000     -33.69040000     -75.61130000
