40
Properties=species:S:1:pos:R:3 #=T CELL(abcABC):=T 1.889726e+02=T 90.00000=T Traj:=T positionsangstrom=T Step:=T 0=T Bead:=T pbc="F F F"
C      -48.34450000     -35.92990000     -69.84390000
C      -47.00310000     -36.29010000     -70.08200000
C      -45.96980000     -35.61320000     -69.36370000
C      -46.28600000     -34.66970000     -68.34730000
C      -47.62200000     -34.47370000     -68.05340000
C      -48.62470000     -35.12560000     -68.73310000
H      -49.21000000     -36.37680000     -70.32120000
H      -44.92100000     -35.76050000     -69.60840000
H      -47.77800000     -33.88800000     -67.07780000
H      -49.66840000     -34.93930000     -68.50630000
C      -45.16810000     -33.99670000     -67.63590000
H      -44.30330000     -34.42680000     -68.15390000
H      -44.99550000     -34.47940000     -66.63480000
C      -46.57660000     -37.26410000     -71.13560000
H      -45.49710000     -37.28900000     -71.13550000
H      -47.04710000     -38.24010000     -71.02950000
S      -45.31050000     -32.19780000     -67.39090000
S      -47.13180000     -36.61170000     -72.84150000
C      -44.36770000     -31.52490000     -68.78520000
H      -44.48300000     -30.40940000     -68.76950000
H      -43.29780000     -31.66090000     -68.64390000
C      -45.96520000     -35.38540000     -73.52170000
H      -46.38690000     -35.35320000     -74.58930000
H      -44.99280000     -35.88590000     -73.56140000
C      -45.99070000     -34.02000000     -72.86660000
H      -47.03200000     -33.54960000     -72.96550000
H      -45.82900000     -34.09580000     -71.85410000
C      -44.72840000     -32.22300000     -70.13910000
H      -45.83560000     -32.31990000     -70.21150000
H      -44.36720000     -33.28810000     -70.16470000
C      -44.17390000     -31.48900000     -71.37510000
C      -43.19310000     -30.47970000     -71.30980000
C      -44.26170000     -32.01140000     -72.75580000
H      -42.97430000     -30.01410000     -70.34680000
C      -43.56480000     -31.18990000     -73.67700000
C      -45.03960000     -33.04370000     -73.46700000
C      -44.78400000     -33.00000000     -74.81860000
S      -42.57990000     -29.94790000     -72.86910000
S      -43.64680000     -31.73460000     -75.34340000
H      -45.23360000     -33.69400000     -75.46850000
