40
Properties=species:S:1:pos:R:3 #=T CELL(abcABC):=T 1.889726e+02=T 90.00000=T Traj:=T positionsangstrom=T Step:=T 0=T Bead:=T pbc="F F F"
C      -46.26560000     -32.69320000     -68.14240000
C      -44.90900000     -32.98800000     -68.01160000
C      -44.00080000     -32.05060000     -68.57590000
C      -44.44410000     -30.91420000     -69.24090000
C      -45.79040000     -30.66250000     -69.36680000
C      -46.71730000     -31.50090000     -68.72210000
H      -47.00290000     -33.35990000     -67.67910000
H      -42.90550000     -32.21080000     -68.35060000
H      -46.18770000     -29.70410000     -69.82380000
H      -47.68150000     -31.06390000     -68.80140000
C      -43.45700000     -29.93460000     -69.85380000
H      -42.57290000     -29.84420000     -69.30990000
H      -43.88740000     -28.98400000     -70.08030000
C      -44.45000000     -34.32220000     -67.50410000
H      -43.64640000     -34.22410000     -66.69780000
H      -45.22300000     -34.96440000     -67.06800000
S      -42.72100000     -30.52680000     -71.54380000
S      -43.64900000     -35.34990000     -68.82730000
C      -44.22520000     -30.98860000     -72.39540000
H      -45.07970000     -30.42010000     -72.00120000
H      -44.23380000     -30.76170000     -73.48680000
C      -44.95680000     -35.12010000     -70.12950000
H      -45.42380000     -34.08870000     -70.18530000
H      -45.86430000     -35.64700000     -69.81770000
C      -44.41920000     -35.56620000     -71.47620000
H      -43.51860000     -35.01580000     -71.84340000
H      -44.05400000     -36.57870000     -71.38900000
C      -44.59150000     -32.39340000     -72.24790000
H      -44.81420000     -32.49580000     -71.20510000
H      -43.73450000     -33.00570000     -72.50340000
C      -45.74220000     -33.02880000     -73.03640000
C      -46.66460000     -32.30550000     -73.67180000
C      -46.00570000     -34.44400000     -73.02830000
H      -46.51860000     -31.19280000     -73.93510000
C      -47.16410000     -34.72230000     -73.79160000
C      -45.39160000     -35.62930000     -72.55400000
C      -45.94270000     -36.73130000     -73.11980000
S      -47.92360000     -33.32570000     -74.43540000
S      -47.30970000     -36.45060000     -74.09680000
H      -45.91600000     -37.74850000     -72.70170000
