40
Properties=species:S:1:pos:R:3 #=T CELL(abcABC):=T 1.889726e+02=T 90.00000=T Traj:=T positionsangstrom=T Step:=T 0=T Bead:=T pbc="F F F"
C      -46.29670000     -31.91820000     -68.15360000
C      -45.01740000     -32.40320000     -68.13950000
C      -43.99200000     -31.79860000     -68.84200000
C      -44.16120000     -30.67090000     -69.56920000
C      -45.50680000     -30.13830000     -69.60660000
C      -46.57410000     -30.74940000     -68.94090000
H      -47.09160000     -32.45830000     -67.52620000
H      -43.04170000     -32.38820000     -68.74020000
H      -45.87230000     -29.34880000     -70.21130000
H      -47.61180000     -30.51890000     -69.07060000
C      -43.04040000     -29.95930000     -70.21710000
H      -42.28270000     -29.82480000     -69.46790000
H      -43.27490000     -28.98110000     -70.59140000
C      -44.69920000     -33.74450000     -67.46390000
H      -44.06600000     -33.47420000     -66.57450000
H      -45.64430000     -34.15730000     -67.17780000
S      -42.42080000     -30.86500000     -71.72560000
S      -43.85910000     -34.88230000     -68.66110000
C      -44.04880000     -31.30490000     -72.54630000
H      -44.86190000     -30.71410000     -72.15440000
H      -43.93130000     -31.04850000     -73.62380000
C      -45.18700000     -35.14050000     -69.85630000
H      -45.62380000     -34.16690000     -70.05180000
H      -46.04090000     -35.62810000     -69.34390000
C      -44.64360000     -35.84200000     -71.07960000
H      -43.70170000     -35.31190000     -71.25970000
H      -44.31600000     -36.82320000     -70.71620000
C      -44.33560000     -32.86240000     -72.42710000
H      -44.42210000     -32.96500000     -71.33630000
H      -43.50660000     -33.50570000     -72.68910000
C      -45.57790000     -33.32170000     -73.14030000
C      -46.38460000     -32.65460000     -74.08870000
C      -46.13310000     -34.63890000     -72.88270000
H      -46.08070000     -31.77030000     -74.60780000
C      -47.24490000     -34.98080000     -73.69680000
C      -45.65240000     -35.76940000     -72.15210000
C      -46.45610000     -36.87840000     -72.43720000
S      -47.63910000     -33.70550000     -74.85520000
S      -47.77780000     -36.66710000     -73.50890000
H      -46.14230000     -37.90420000     -72.16310000
