40
Properties=species:S:1:pos:R:3 #=T CELL(abcABC):=T 1.889726e+02=T 90.00000=T Traj:=T positionsangstrom=T Step:=T 0=T Bead:=T pbc="F F F"
C      -44.60510000     -31.47690000     -73.42340000
C      -45.59930000     -32.39900000     -73.74640000
C      -45.37140000     -33.78330000     -73.51000000
C      -44.16670000     -34.22190000     -72.93710000
C      -43.20140000     -33.30510000     -72.58100000
C      -43.43700000     -31.95520000     -72.84390000
H      -44.66190000     -30.40340000     -73.60090000
H      -46.20910000     -34.48480000     -73.67900000
H      -42.20120000     -33.64020000     -72.31230000
H      -42.81220000     -31.15150000     -72.40290000
C      -43.79720000     -35.67520000     -72.87720000
H      -42.90000000     -35.96500000     -73.42170000
H      -44.57300000     -36.33180000     -73.23810000
C      -46.81100000     -31.96060000     -74.46640000
H      -46.82870000     -30.88650000     -74.25670000
H      -46.81820000     -32.02790000     -75.58310000
S      -43.34970000     -36.31760000     -71.22250000
S      -48.33750000     -32.85910000     -73.97330000
C      -44.98140000     -36.90310000     -70.47270000
H      -45.52640000     -37.55940000     -71.11530000
H      -44.74390000     -37.55820000     -69.57060000
C      -48.78820000     -32.51970000     -72.18190000
H      -49.79230000     -32.98800000     -72.20310000
H      -48.79450000     -31.47870000     -71.87320000
C      -47.90590000     -33.28570000     -71.16800000
H      -48.57920000     -33.61240000     -70.30520000
H      -47.64520000     -34.26570000     -71.65190000
C      -45.87500000     -35.78560000     -69.99850000
H      -46.61520000     -36.08620000     -69.28150000
H      -46.52830000     -35.45160000     -70.78520000
C      -45.18360000     -34.61950000     -69.39790000
C      -44.10310000     -34.58660000     -68.54050000
C      -45.61270000     -33.23820000     -69.71980000
H      -43.57670000     -35.54400000     -68.31350000
C      -44.69790000     -32.28810000     -69.20840000
C      -46.63800000     -32.66200000     -70.56320000
C      -46.53450000     -31.26990000     -70.57020000
S      -43.38070000     -33.04290000     -68.22950000
S      -45.16590000     -30.61990000     -69.60750000
H      -47.15260000     -30.59690000     -71.10780000
