40
Properties=species:S:1:pos:R:3 #=T CELL(abcABC):=T 1.889726e+02=T 90.00000=T Traj:=T positionsangstrom=T Step:=T 0=T Bead:=T pbc="F F F"
C      -45.62040000     -30.41800000     -68.68480000
C      -44.63610000     -31.40300000     -68.59830000
C      -43.52400000     -31.21670000     -69.37470000
C      -43.50910000     -30.32460000     -70.46630000
C      -44.62880000     -29.48780000     -70.60350000
C      -45.61030000     -29.48380000     -69.66860000
H      -46.60870000     -30.43440000     -68.14280000
H      -42.71520000     -31.86880000     -69.08540000
H      -44.77020000     -28.93490000     -71.47060000
H      -46.44840000     -28.74300000     -69.72850000
C      -42.40430000     -30.41520000     -71.43670000
H      -41.47940000     -29.88740000     -71.05140000
H      -42.68350000     -29.88070000     -72.26960000
C      -44.69740000     -32.51530000     -67.55550000
H      -44.03660000     -32.42270000     -66.70830000
H      -45.75640000     -32.34710000     -67.18470000
S      -41.87730000     -32.17700000     -71.81500000
S      -44.49960000     -34.29880000     -68.21700000
C      -43.25050000     -32.73270000     -72.95020000
H      -43.64480000     -31.90630000     -73.53180000
H      -42.88540000     -33.58720000     -73.55920000
C      -46.05600000     -34.56920000     -69.22990000
H      -46.22200000     -33.67250000     -69.83280000
H      -46.89150000     -34.77320000     -68.51310000
C      -45.78700000     -35.76640000     -70.14040000
H      -44.73370000     -35.79930000     -70.38090000
H      -46.02550000     -36.65160000     -69.51240000
C      -44.41820000     -33.39880000     -72.11700000
H      -44.84220000     -32.60120000     -71.45800000
H      -43.95220000     -34.13520000     -71.41640000
C      -45.47810000     -33.99960000     -72.98780000
C      -45.77600000     -33.60800000     -74.29740000
C      -46.39270000     -35.05520000     -72.60620000
H      -45.37030000     -32.73320000     -74.79860000
C      -47.44360000     -35.26030000     -73.54190000
C      -46.59800000     -35.81710000     -71.40250000
C      -47.74770000     -36.61540000     -71.49170000
S      -47.32100000     -34.24610000     -74.91160000
S      -48.52340000     -36.51210000     -73.02800000
H      -48.12540000     -37.20560000     -70.65050000
