40
Properties=species:S:1:pos:R:3 #=T CELL(abcABC):=T 1.889726e+02=T 90.00000=T Traj:=T positionsangstrom=T Step:=T 0=T Bead:=T pbc="F F F"
C      -44.67290000     -37.29540000     -73.20550000
C      -44.71630000     -35.93810000     -73.66610000
C      -43.63290000     -35.15860000     -73.23390000
C      -42.67630000     -35.60040000     -72.32150000
C      -42.60540000     -36.93350000     -71.88360000
C      -43.63020000     -37.71820000     -72.30720000
H      -45.47350000     -38.01780000     -73.52270000
H      -43.60300000     -34.14370000     -73.60700000
H      -41.79830000     -37.29870000     -71.12480000
H      -43.73410000     -38.71540000     -71.88530000
C      -41.48010000     -34.74460000     -71.86260000
H      -40.57510000     -34.78620000     -72.57620000
H      -41.11090000     -35.16000000     -70.93350000
C      -45.76780000     -35.55020000     -74.59780000
H      -45.50020000     -35.91220000     -75.59340000
H      -46.74720000     -36.01140000     -74.34290000
S      -41.80340000     -32.93000000     -71.73970000
S      -46.19380000     -33.74180000     -74.68930000
C      -43.00920000     -32.62380000     -70.39430000
H      -43.24690000     -33.59400000     -69.97170000
H      -42.43400000     -32.04000000     -69.68070000
C      -46.72070000     -33.58250000     -72.85470000
H      -45.87160000     -33.92490000     -72.23500000
H      -47.60740000     -34.22890000     -72.69110000
C      -47.00010000     -32.10390000     -72.63380000
H      -46.20800000     -31.45900000     -72.87150000
H      -47.79070000     -31.79030000     -73.34950000
C      -44.20520000     -31.91020000     -70.83450000
H      -44.67750000     -32.38830000     -71.67910000
H      -43.94820000     -30.93350000     -71.14690000
C      -45.29090000     -31.71640000     -69.71100000
C      -44.95680000     -31.46180000     -68.42990000
C      -46.63090000     -31.76820000     -69.93660000
H      -43.98920000     -31.56340000     -67.98220000
C      -47.39830000     -31.66800000     -68.76650000
C      -47.48860000     -31.85240000     -71.14900000
C      -48.80020000     -31.67880000     -70.77620000
S      -46.36310000     -31.52950000     -67.34220000
S      -49.04420000     -31.76330000     -69.06830000
H      -49.73340000     -31.70970000     -71.38610000
