40
Properties=species:S:1:pos:R:3 #=T CELL(abcABC):=T 1.889726e+02=T 90.00000=T Traj:=T positionsangstrom=T Step:=T 0=T Bead:=T pbc="F F F"
C      -45.75820000     -30.65090000     -68.50600000
C      -44.66780000     -31.54070000     -68.33690000
C      -43.70350000     -31.49390000     -69.36470000
C      -43.73300000     -30.53320000     -70.37610000
C      -44.79850000     -29.63530000     -70.32420000
C      -45.86610000     -29.68210000     -69.45240000
H      -46.50330000     -30.75100000     -67.76280000
H      -42.90660000     -32.17830000     -69.29360000
H      -45.03670000     -28.88960000     -71.09400000
H      -46.66970000     -28.95950000     -69.48610000
C      -42.77860000     -30.36680000     -71.50980000
H      -41.90670000     -29.69100000     -71.17310000
H      -43.30120000     -29.93080000     -72.28150000
C      -44.57620000     -32.62540000     -67.31020000
H      -43.60160000     -32.56260000     -66.79730000
H      -45.36840000     -32.52600000     -66.57800000
S      -41.96540000     -31.98200000     -72.02970000
S      -44.35380000     -34.20140000     -68.09520000
C      -43.23710000     -32.72500000     -73.05300000
H      -43.59730000     -31.97890000     -73.73220000
H      -42.57950000     -33.34000000     -73.70420000
C      -45.77940000     -34.43390000     -69.28260000
H      -46.04640000     -33.53650000     -69.82160000
H      -46.63550000     -34.62050000     -68.63620000
C      -45.69050000     -35.66380000     -70.20170000
H      -44.63400000     -35.79980000     -70.54180000
H      -45.96010000     -36.57100000     -69.62110000
C      -44.29540000     -33.44010000     -72.20940000
H      -44.65810000     -32.76180000     -71.50080000
H      -43.81430000     -34.32800000     -71.75060000
C      -45.49420000     -33.92200000     -73.02990000
C      -45.67510000     -33.66440000     -74.38810000
C      -46.42540000     -34.90970000     -72.55410000
H      -45.26330000     -32.86610000     -75.04100000
C      -47.40340000     -35.16650000     -73.53220000
C      -46.63360000     -35.70850000     -71.42400000
C      -47.73330000     -36.56660000     -71.49120000
S      -47.09230000     -34.46690000     -75.11100000
S      -48.58220000     -36.31190000     -73.03100000
H      -47.94740000     -37.29190000     -70.69500000
