40
Properties=species:S:1:pos:R:3 #=T CELL(abcABC):=T 1.889726e+02=T 90.00000=T Traj:=T positionsangstrom=T Step:=T 0=T Bead:=T pbc="F F F"
C      -44.82840000     -37.11930000     -72.84080000
C      -44.62770000     -35.89750000     -73.46610000
C      -43.55540000     -35.09590000     -73.05540000
C      -42.61240000     -35.57370000     -72.13880000
C      -42.81260000     -36.77460000     -71.51210000
C      -43.91300000     -37.58510000     -71.88900000
H      -45.59240000     -37.76860000     -73.10770000
H      -43.37550000     -34.21800000     -73.67660000
H      -42.09500000     -37.19500000     -70.77660000
H      -44.00590000     -38.51270000     -71.37970000
C      -41.43660000     -34.72430000     -71.83350000
H      -40.64060000     -35.08530000     -72.46420000
H      -41.09570000     -34.94370000     -70.74080000
C      -45.56310000     -35.59860000     -74.64460000
H      -45.05760000     -35.85460000     -75.55960000
H      -46.42030000     -36.21470000     -74.50120000
S      -41.78360000     -32.80240000     -72.05790000
S      -46.00860000     -33.80650000     -74.68350000
C      -42.80050000     -32.20200000     -70.61680000
H      -42.66220000     -32.94010000     -69.81160000
H      -42.42620000     -31.20230000     -70.34140000
C      -47.04020000     -33.63250000     -73.03530000
H      -46.49960000     -34.17200000     -72.23720000
H      -47.95330000     -34.31410000     -73.06110000
C      -47.21560000     -32.19830000     -72.70140000
H      -46.22630000     -31.65330000     -72.71050000
H      -47.81330000     -31.73570000     -73.40850000
C      -44.28940000     -32.08740000     -70.97330000
H      -44.57190000     -33.03510000     -71.36680000
H      -44.54120000     -31.37240000     -71.74320000
C      -45.28570000     -31.92190000     -69.78840000
C      -44.86170000     -31.85140000     -68.50810000
C      -46.66810000     -31.77510000     -70.01550000
H      -43.89290000     -31.78460000     -68.06800000
C      -47.35920000     -31.61420000     -68.80220000
C      -47.54260000     -31.90570000     -71.18670000
C      -48.85300000     -31.86400000     -70.75710000
S      -46.25830000     -31.63550000     -67.39410000
S      -49.12260000     -31.66710000     -69.00660000
H      -49.60650000     -31.98260000     -71.52720000
