40
Properties=species:S:1:pos:R:3 #=T CELL(abcABC):=T 1.889726e+02=T 90.00000=T Traj:=T positionsangstrom=T Step:=T 0=T Bead:=T pbc="F F F"
C      -45.98630000     -31.77060000     -68.03970000
C      -44.63210000     -32.24090000     -68.20270000
C      -43.77400000     -31.61980000     -69.08550000
C      -44.22020000     -30.51450000     -69.85370000
C      -45.51720000     -30.07040000     -69.67890000
C      -46.34720000     -30.60570000     -68.68240000
H      -46.62370000     -32.22260000     -67.23450000
H      -42.75400000     -31.97540000     -69.19030000
H      -45.96240000     -29.11830000     -70.05930000
H      -47.38370000     -30.32090000     -68.56240000
C      -43.30220000     -29.76230000     -70.82960000
H      -42.37340000     -29.30540000     -70.34240000
H      -43.75410000     -28.86710000     -71.40980000
C      -44.34580000     -33.40270000     -67.34800000
H      -43.31090000     -33.23390000     -66.93350000
H      -44.99610000     -33.56180000     -66.48240000
S      -42.46040000     -31.00830000     -71.91290000
S      -44.20880000     -35.02220000     -68.23200000
C      -43.87100000     -31.71610000     -72.91130000
H      -44.66340000     -31.01930000     -72.67850000
H      -43.61090000     -31.49610000     -73.94130000
C      -45.45140000     -34.77230000     -69.60120000
H      -45.47450000     -33.76890000     -70.04130000
H      -46.46400000     -35.00890000     -69.36240000
C      -45.11330000     -35.70630000     -70.73250000
H      -44.13620000     -35.27340000     -71.07050000
H      -45.02170000     -36.74970000     -70.31100000
C      -43.95900000     -33.18580000     -72.74300000
H      -43.87500000     -33.40000000     -71.66500000
H      -43.16730000     -33.62920000     -73.33410000
C      -45.23450000     -33.69700000     -73.33620000
C      -45.65180000     -33.22930000     -74.58720000
C      -46.07480000     -34.82480000     -72.91060000
H      -45.25470000     -32.38890000     -75.08270000
C      -47.19960000     -35.02470000     -73.75740000
C      -46.13400000     -35.70510000     -71.80240000
C      -47.15060000     -36.60100000     -71.83700000
S      -47.16300000     -33.98370000     -75.16860000
S      -48.27370000     -36.30070000     -73.13010000
H      -47.42830000     -37.33750000     -71.04340000
