40
Properties=species:S:1:pos:R:3 #=T CELL(abcABC):=T 1.889726e+02=T 90.00000=T Traj:=T positionsangstrom=T Step:=T 0=T Bead:=T pbc="F F F"
C      -45.10950000     -36.96940000     -72.97990000
C      -44.60430000     -35.90040000     -73.77250000
C      -43.42880000     -35.28440000     -73.43440000
C      -42.73190000     -35.63310000     -72.21390000
C      -43.17370000     -36.73680000     -71.57410000
C      -44.29780000     -37.41140000     -71.94590000
H      -45.92600000     -37.63560000     -73.34560000
H      -43.07340000     -34.38910000     -73.97330000
H      -42.57530000     -37.24420000     -70.80890000
H      -44.58710000     -38.27550000     -71.43280000
C      -41.57660000     -34.88070000     -71.72340000
H      -40.63810000     -34.90680000     -72.23010000
H      -41.35060000     -35.21100000     -70.68000000
C      -45.42420000     -35.28390000     -74.93930000
H      -44.83820000     -35.36150000     -75.84520000
H      -46.41970000     -35.85080000     -75.00650000
S      -41.92370000     -33.06870000     -71.64310000
S      -45.86960000     -33.48210000     -74.83090000
C      -43.38890000     -33.02780000     -70.59340000
H      -44.15090000     -33.66020000     -71.07570000
H      -42.98090000     -33.60450000     -69.70940000
C      -46.30130000     -33.51160000     -72.94760000
H      -45.47750000     -33.83050000     -72.29540000
H      -47.21210000     -34.14810000     -72.90570000
C      -46.69010000     -32.06290000     -72.60070000
H      -45.70420000     -31.50770000     -72.77280000
H      -47.46130000     -31.69910000     -73.30580000
C      -43.90620000     -31.61240000     -70.39980000
H      -44.20010000     -31.17760000     -71.38900000
H      -43.18520000     -30.96580000     -69.90200000
C      -45.15080000     -31.81300000     -69.49230000
C      -45.04220000     -31.63950000     -68.18810000
C      -46.53660000     -31.85070000     -69.95160000
H      -44.12850000     -31.52750000     -67.64550000
C      -47.39620000     -31.71190000     -68.86010000
C      -47.22960000     -31.94770000     -71.18630000
C      -48.61350000     -31.99910000     -71.03010000
S      -46.64610000     -31.60620000     -67.31220000
S      -49.02260000     -31.84040000     -69.34010000
H      -49.27610000     -31.97470000     -71.84700000
