40
Properties=species:S:1:pos:R:3 #=T CELL(abcABC):=T 1.889726e+02=T 90.00000=T Traj:=T positionsangstrom=T Step:=T 0=T Bead:=T pbc="F F F"
C      -45.66840000     -30.42640000     -69.01240000
C      -44.75160000     -31.38790000     -68.71350000
C      -43.55860000     -31.39130000     -69.45820000
C      -43.29120000     -30.43000000     -70.42050000
C      -44.28000000     -29.38240000     -70.64130000
C      -45.45410000     -29.39810000     -69.92910000
H      -46.64580000     -30.33580000     -68.39400000
H      -42.94960000     -32.31230000     -69.47770000
H      -44.02110000     -28.48800000     -71.21800000
H      -46.29520000     -28.70970000     -69.91920000
C      -42.11270000     -30.56020000     -71.32040000
H      -41.20090000     -30.30340000     -70.86560000
H      -42.13010000     -29.88500000     -72.26990000
C      -44.92390000     -32.39680000     -67.62920000
H      -44.23610000     -32.35620000     -66.78630000
H      -45.91230000     -32.34410000     -67.17570000
S      -41.73430000     -32.25910000     -71.89480000
S      -44.66460000     -34.14790000     -68.19190000
C      -43.28070000     -32.79100000     -72.85280000
H      -43.67320000     -31.89300000     -73.38370000
H      -42.94730000     -33.46830000     -73.61890000
C      -46.11390000     -34.48830000     -69.31910000
H      -46.20830000     -33.62520000     -69.97160000
H      -47.02680000     -34.46330000     -68.76850000
C      -45.86920000     -35.79230000     -70.09810000
H      -44.79660000     -35.82690000     -70.32690000
H      -46.05570000     -36.63900000     -69.41890000
C      -44.38450000     -33.46090000     -72.02560000
H      -44.79100000     -32.90280000     -71.17130000
H      -43.97390000     -34.31100000     -71.53820000
C      -45.63370000     -33.93990000     -72.78360000
C      -45.99680000     -33.36900000     -73.97280000
C      -46.50540000     -35.07060000     -72.52780000
H      -45.35920000     -32.65370000     -74.42550000
C      -47.51820000     -35.18040000     -73.44750000
C      -46.60840000     -35.93580000     -71.37550000
C      -47.66610000     -36.80010000     -71.51710000
S      -47.26810000     -34.20290000     -74.86920000
S      -48.56870000     -36.56880000     -73.05250000
H      -48.04350000     -37.46900000     -70.68520000
