40
Properties=species:S:1:pos:R:3 #=T CELL(abcABC):=T 1.889726e+02=T 90.00000=T Traj:=T positionsangstrom=T Step:=T 0=T Bead:=T pbc="F F F"
C      -45.61230000     -30.20200000     -69.13660000
C      -44.84680000     -31.34110000     -68.78100000
C      -43.66740000     -31.53910000     -69.48690000
C      -43.28680000     -30.68510000     -70.53020000
C      -44.03490000     -29.55430000     -70.82810000
C      -45.23720000     -29.34660000     -70.11180000
H      -46.59710000     -30.00620000     -68.68440000
H      -43.02870000     -32.33290000     -69.10850000
H      -43.78230000     -28.99270000     -71.73730000
H      -45.90650000     -28.62020000     -70.45860000
C      -41.88690000     -30.82420000     -71.19670000
H      -41.08550000     -30.70890000     -70.50400000
H      -41.88170000     -29.97220000     -71.95460000
C      -45.27340000     -32.37910000     -67.70810000
H      -44.71540000     -31.98640000     -66.77270000
H      -46.33400000     -32.43780000     -67.48720000
S      -41.77600000     -32.53120000     -72.02010000
S      -44.79060000     -34.12250000     -68.03020000
C      -43.40490000     -32.65090000     -72.85660000
H      -43.72720000     -31.59640000     -73.09030000
H      -43.23400000     -33.11280000     -73.82500000
C      -46.10370000     -34.56510000     -69.24310000
H      -46.24620000     -33.68570000     -69.91470000
H      -47.04210000     -34.74000000     -68.71620000
C      -45.81640000     -35.88110000     -69.98750000
H      -44.75570000     -36.03830000     -70.17210000
H      -46.09370000     -36.72390000     -69.37140000
C      -44.35160000     -33.44900000     -72.01810000
H      -44.52720000     -32.80710000     -71.13400000
H      -43.75920000     -34.32430000     -71.70620000
C      -45.57680000     -33.89370000     -72.77830000
C      -45.89170000     -33.31370000     -73.96630000
C      -46.53890000     -34.90960000     -72.42680000
H      -45.27160000     -32.53050000     -74.35300000
C      -47.49680000     -35.04420000     -73.39320000
C      -46.63450000     -35.90020000     -71.29940000
C      -47.75090000     -36.69070000     -71.51280000
S      -47.33310000     -33.96320000     -74.73490000
S      -48.41700000     -36.56890000     -73.12600000
H      -48.15150000     -37.51770000     -70.93610000
