40
Properties=species:S:1:pos:R:3 #=T CELL(abcABC):=T 1.889726e+02=T 90.00000=T Traj:=T positionsangstrom=T Step:=T 0=T Bead:=T pbc="F F F"
C      -45.15190000     -36.91080000     -73.18390000
C      -44.58340000     -35.80740000     -73.88940000
C      -43.38730000     -35.25440000     -73.35270000
C      -42.80170000     -35.65060000     -72.15870000
C      -43.42360000     -36.75300000     -71.49520000
C      -44.56880000     -37.36090000     -72.00900000
H      -45.93430000     -37.47570000     -73.61720000
H      -43.06410000     -34.38280000     -73.86910000
H      -42.90670000     -37.26310000     -70.68900000
H      -44.91020000     -38.37680000     -71.70210000
C      -41.55430000     -35.03630000     -71.66900000
H      -40.73920000     -35.17910000     -72.40130000
H      -41.24000000     -35.54640000     -70.79370000
C      -45.36440000     -35.17080000     -74.97000000
H      -44.81340000     -35.23690000     -75.95220000
H      -46.19690000     -35.87590000     -75.18870000
S      -41.63990000     -33.20770000     -71.16760000
S      -45.99020000     -33.40790000     -74.88750000
C      -43.26760000     -33.14360000     -70.33770000
H      -44.07340000     -33.88690000     -70.77580000
H      -43.22570000     -33.29900000     -69.23220000
C      -46.35940000     -33.28790000     -73.09730000
H      -45.44890000     -33.55760000     -72.51570000
H      -47.19410000     -33.94290000     -72.70900000
C      -46.81660000     -31.87670000     -72.81080000
H      -45.99160000     -31.14610000     -72.98980000
H      -47.61430000     -31.52810000     -73.50860000
C      -43.90860000     -31.75730000     -70.46780000
H      -44.17750000     -31.48520000     -71.50060000
H      -43.19830000     -31.00320000     -70.02170000
C      -45.14950000     -31.65290000     -69.60860000
C      -45.02070000     -31.54560000     -68.26030000
C      -46.49870000     -31.87060000     -70.04890000
H      -44.12570000     -31.26100000     -67.69110000
C      -47.34690000     -31.87240000     -68.93550000
C      -47.25900000     -31.86700000     -71.34620000
C      -48.59240000     -31.95920000     -71.07620000
S      -46.61210000     -31.60980000     -67.38770000
S      -49.01480000     -31.97270000     -69.32740000
H      -49.46130000     -32.09580000     -71.81180000
