40
Properties=species:S:1:pos:R:3 #=T CELL(abcABC):=T 1.889726e+02=T 90.00000=T Traj:=T positionsangstrom=T Step:=T 0=T Bead:=T pbc="F F F"
C      -47.44310000     -31.20760000     -69.06210000
C      -47.81960000     -31.48670000     -70.38590000
C      -48.24970000     -32.77710000     -70.67000000
C      -48.28900000     -33.82590000     -69.70980000
C      -47.87960000     -33.52230000     -68.39850000
C      -47.59910000     -32.20400000     -68.06320000
H      -46.98680000     -30.19840000     -68.84760000
H      -48.60650000     -32.90710000     -71.72470000
H      -47.85080000     -34.30450000     -67.68450000
H      -47.35390000     -31.90510000     -67.00330000
C      -48.78050000     -35.18370000     -69.98060000
H      -49.58820000     -35.16620000     -70.71460000
H      -49.32210000     -35.67340000     -69.09130000
C      -47.68320000     -30.47750000     -71.53980000
H      -47.79170000     -30.95780000     -72.47940000
H      -48.47410000     -29.70920000     -71.33930000
S      -47.43570000     -36.32060000     -70.48220000
S      -46.18280000     -29.42970000     -71.65530000
C      -45.85210000     -35.68700000     -69.61460000
H      -46.10730000     -35.38020000     -68.58710000
H      -45.18760000     -36.56080000     -69.54130000
C      -44.89710000     -30.45710000     -72.60100000
H      -44.24220000     -29.78720000     -73.14130000
H      -45.41930000     -31.03520000     -73.42520000
C      -44.27870000     -31.41760000     -71.61850000
H      -43.61030000     -30.85160000     -70.98730000
H      -45.03210000     -31.88460000     -71.06070000
C      -45.19410000     -34.48810000     -70.21300000
H      -44.72830000     -33.82820000     -69.52400000
H      -45.92040000     -33.83530000     -70.74710000
C      -44.08590000     -34.81800000     -71.17400000
C      -43.70560000     -36.12570000     -71.43830000
C      -43.38350000     -33.87320000     -71.99430000
H      -43.98840000     -37.02710000     -71.00290000
C      -42.46690000     -34.54000000     -72.86900000
C      -43.40220000     -32.44970000     -72.27750000
C      -42.53550000     -32.04490000     -73.28480000
S      -42.41380000     -36.21380000     -72.69490000
S      -41.65410000     -33.44430000     -73.94430000
H      -42.48020000     -31.04210000     -73.68970000
