40
Properties=species:S:1:pos:R:3 #=T CELL(abcABC):=T 1.889726e+02=T 90.00000=T Traj:=T positionsangstrom=T Step:=T 0=T Bead:=T pbc="F F F"
C      -45.34150000     -30.30710000     -69.24150000
C      -44.86200000     -31.46810000     -68.58580000
C      -43.77270000     -32.16370000     -69.05650000
C      -43.03060000     -31.77970000     -70.16470000
C      -43.47220000     -30.58580000     -70.80320000
C      -44.63720000     -29.93620000     -70.40510000
H      -46.27930000     -29.77320000     -68.89290000
H      -43.42830000     -32.93410000     -68.46080000
H      -43.06630000     -30.27200000     -71.82210000
H      -44.83730000     -29.01170000     -70.95540000
C      -41.77880000     -32.50490000     -70.55810000
H      -41.82680000     -33.55190000     -70.09100000
H      -40.86130000     -32.04830000     -70.18680000
C      -45.56920000     -32.08070000     -67.40410000
H      -44.95770000     -31.89890000     -66.57200000
H      -46.48030000     -31.52280000     -67.21520000
S      -41.42120000     -32.44970000     -72.36200000
S      -45.78750000     -33.93620000     -67.43900000
C      -42.98760000     -32.88080000     -73.30450000
H      -43.48120000     -32.00200000     -73.74160000
H      -42.57350000     -33.53540000     -74.06960000
C      -46.68980000     -34.24220000     -69.11320000
H      -46.73970000     -33.28320000     -69.58370000
H      -47.60380000     -34.75170000     -68.81900000
C      -45.89150000     -35.19450000     -70.07200000
H      -44.87580000     -34.78700000     -70.19270000
H      -45.74330000     -36.11870000     -69.63660000
C      -43.98240000     -33.73920000     -72.50260000
H      -44.01390000     -33.42980000     -71.46040000
H      -43.53670000     -34.79300000     -72.48080000
C      -45.33650000     -33.81060000     -73.06830000
C      -45.50600000     -33.46690000     -74.41940000
C      -46.47770000     -34.59910000     -72.58860000
H      -44.90770000     -32.77150000     -75.06100000
C      -47.48040000     -34.73610000     -73.53070000
C      -46.70210000     -35.33450000     -71.37930000
C      -47.90170000     -36.01060000     -71.40260000
S      -47.15130000     -33.88610000     -75.05320000
S      -48.78430000     -35.75510000     -72.92960000
H      -48.33280000     -36.68810000     -70.70000000
