40
Properties=species:S:1:pos:R:3 #=T CELL(abcABC):=T 1.889726e+02=T 90.00000=T Traj:=T positionsangstrom=T Step:=T 0=T Bead:=T pbc="F F F"
C      -45.64150000     -30.23670000     -69.31500000
C      -44.90000000     -31.33290000     -68.78450000
C      -43.62450000     -31.61040000     -69.37960000
C      -43.04800000     -30.83240000     -70.38920000
C      -43.82560000     -29.78850000     -70.92140000
C      -45.07540000     -29.45460000     -70.36970000
H      -46.56200000     -30.01640000     -68.92390000
H      -43.06450000     -32.48520000     -69.04450000
H      -43.43050000     -29.11080000     -71.63990000
H      -45.44320000     -28.44900000     -70.53280000
C      -41.74080000     -31.10020000     -70.97430000
H      -40.97570000     -31.21670000     -70.11210000
H      -41.40470000     -30.31250000     -71.52700000
C      -45.50390000     -32.17970000     -67.73650000
H      -45.13530000     -31.84530000     -66.77680000
H      -46.59460000     -32.06950000     -67.67270000
S      -41.61940000     -32.53830000     -72.08950000
S      -45.09760000     -34.04120000     -67.92570000
C      -43.33230000     -32.66950000     -72.88120000
H      -43.70670000     -31.67410000     -72.86940000
H      -43.13480000     -32.96740000     -73.92110000
C      -46.39130000     -34.51250000     -69.26020000
H      -46.50870000     -33.75810000     -70.00550000
H      -47.34070000     -34.70770000     -68.84480000
C      -45.71370000     -35.70460000     -70.04320000
H      -44.62090000     -35.41040000     -70.26550000
H      -45.69660000     -36.61740000     -69.48630000
C      -44.25690000     -33.57040000     -72.13910000
H      -44.33390000     -33.22500000     -71.11150000
H      -43.76720000     -34.56860000     -72.10310000
C      -45.62390000     -33.74310000     -72.84180000
C      -46.08480000     -33.15090000     -73.98650000
C      -46.43830000     -34.85240000     -72.43640000
H      -45.63500000     -32.29820000     -74.54830000
C      -47.39340000     -35.13730000     -73.42370000
C      -46.45710000     -35.87610000     -71.36860000
C      -47.44880000     -36.80210000     -71.55500000
S      -47.50650000     -33.95400000     -74.65480000
S      -48.47340000     -36.49860000     -73.02100000
H      -47.55030000     -37.70630000     -71.05980000
