40
Properties=species:S:1:pos:R:3 #=T CELL(abcABC):=T 1.889726e+02=T 90.00000=T Traj:=T positionsangstrom=T Step:=T 0=T Bead:=T pbc="F F F"
C      -45.27680000     -30.50990000     -69.06710000
C      -44.70880000     -31.57930000     -68.39780000
C      -43.55390000     -32.22650000     -68.89620000
C      -42.74880000     -31.68350000     -69.88960000
C      -43.26510000     -30.52600000     -70.52630000
C      -44.50170000     -30.03080000     -70.18450000
H      -46.22780000     -29.99960000     -68.67260000
H      -43.19410000     -33.14160000     -68.45870000
H      -42.79920000     -29.88710000     -71.34840000
H      -44.90250000     -29.14560000     -70.63300000
C      -41.50310000     -32.38870000     -70.41290000
H      -41.62720000     -33.33620000     -69.98090000
H      -40.63490000     -31.89340000     -70.09450000
C      -45.52720000     -32.22000000     -67.27920000
H      -44.94920000     -32.22680000     -66.36300000
H      -46.54050000     -31.73940000     -67.18180000
S      -41.46270000     -32.57810000     -72.26820000
S      -45.96840000     -34.03280000     -67.46800000
C      -43.13090000     -32.73710000     -73.01330000
H      -43.62710000     -31.74990000     -72.96050000
H      -42.85020000     -32.96250000     -74.02310000
C      -46.97360000     -33.90770000     -69.00460000
H      -47.02730000     -32.86320000     -69.35280000
H      -48.06220000     -34.22050000     -68.84210000
C      -46.30470000     -34.74850000     -70.11320000
H      -45.31710000     -34.33120000     -70.31070000
H      -46.24410000     -35.81930000     -69.83210000
C      -43.93590000     -33.92120000     -72.49260000
H      -44.31080000     -33.71850000     -71.52530000
H      -43.20060000     -34.72730000     -72.34380000
C      -45.09880000     -34.42160000     -73.32350000
C      -45.11310000     -34.58060000     -74.67980000
C      -46.46580000     -34.50550000     -72.72950000
H      -44.24100000     -34.73570000     -75.27280000
C      -47.45800000     -34.61460000     -73.72890000
C      -47.05850000     -34.64070000     -71.41370000
C      -48.41490000     -34.90180000     -71.49910000
S      -46.75060000     -34.76150000     -75.33890000
S      -49.06430000     -34.97950000     -73.12880000
H      -49.08800000     -34.64200000     -70.68190000
