40
Properties=species:S:1:pos:R:3 #=T CELL(abcABC):=T 1.889726e+02=T 90.00000=T Traj:=T positionsangstrom=T Step:=T 0=T Bead:=T pbc="F F F"
C      -45.22260000     -36.57860000     -73.54140000
C      -44.53010000     -35.52550000     -74.15770000
C      -43.39100000     -35.09380000     -73.54950000
C      -42.84810000     -35.72210000     -72.44470000
C      -43.48410000     -36.87110000     -71.94380000
C      -44.68530000     -37.27030000     -72.44660000
H      -46.08370000     -36.87860000     -74.17800000
H      -42.93090000     -34.09240000     -73.90940000
H      -43.04000000     -37.34590000     -71.09410000
H      -45.26390000     -38.12400000     -72.03610000
C      -41.66270000     -35.13600000     -71.77530000
H      -40.69490000     -35.02520000     -72.43620000
H      -41.27320000     -35.74270000     -70.94480000
C      -45.33810000     -34.76530000     -75.23140000
H      -44.80150000     -34.70140000     -76.18610000
H      -46.28330000     -35.27220000     -75.39280000
S      -41.72760000     -33.42880000     -71.09940000
S      -45.58560000     -32.93780000     -74.88020000
C      -43.37230000     -33.44140000     -70.24270000
H      -44.15330000     -34.08310000     -70.71590000
H      -43.34520000     -33.87670000     -69.26860000
C      -46.17080000     -33.06700000     -73.11180000
H      -45.20690000     -33.55340000     -72.70570000
H      -46.98550000     -33.81710000     -72.98570000
C      -46.47730000     -31.73570000     -72.47340000
H      -45.60640000     -31.08910000     -72.57160000
H      -47.26210000     -31.16790000     -73.06920000
C      -43.87450000     -31.99490000     -70.12860000
H      -44.06120000     -31.45960000     -70.99950000
H      -43.11880000     -31.37630000     -69.61800000
C      -45.18220000     -32.02200000     -69.27500000
C      -45.17660000     -31.94950000     -67.93950000
C      -46.55350000     -32.01750000     -69.84260000
H      -44.39620000     -31.88900000     -67.18240000
C      -47.50530000     -32.07940000     -68.81720000
C      -47.13710000     -31.83090000     -71.08170000
C      -48.48740000     -31.73550000     -71.00450000
S      -46.80490000     -31.91140000     -67.27940000
S      -49.14250000     -31.94930000     -69.39880000
H      -49.16440000     -31.41430000     -71.79470000
