40
Properties=species:S:1:pos:R:3 #=T CELL(abcABC):=T 1.889726e+02=T 90.00000=T Traj:=T positionsangstrom=T Step:=T 0=T Bead:=T pbc="F F F"
C      -45.15770000     -36.62660000     -73.78550000
C      -44.48850000     -35.53560000     -74.31430000
C      -43.30110000     -35.13780000     -73.71080000
C      -42.85570000     -35.61720000     -72.48180000
C      -43.53840000     -36.72860000     -71.93220000
C      -44.74410000     -37.17600000     -72.52470000
H      -46.18350000     -36.88930000     -74.20690000
H      -42.87360000     -34.25150000     -74.24210000
H      -43.07120000     -37.14590000     -71.07770000
H      -45.36560000     -37.98090000     -72.07230000
C      -41.57810000     -35.14210000     -71.91150000
H      -40.85470000     -34.97880000     -72.67060000
H      -41.27420000     -35.84690000     -71.17330000
C      -45.05350000     -34.65690000     -75.37070000
H      -44.28630000     -34.46650000     -76.17720000
H      -45.94320000     -35.15860000     -75.76390000
S      -41.81520000     -33.46560000     -71.17390000
S      -45.37450000     -32.94240000     -74.73960000
C      -43.36380000     -33.52910000     -70.14320000
H      -43.97230000     -34.15840000     -70.77390000
H      -43.09580000     -33.99280000     -69.14790000
C      -46.25930000     -33.16730000     -73.10130000
H      -45.66930000     -33.80520000     -72.48210000
H      -47.16380000     -33.67370000     -73.29820000
C      -46.48030000     -31.83620000     -72.45340000
H      -45.60270000     -31.33420000     -72.43080000
H      -47.17010000     -31.32550000     -73.21360000
C      -43.93900000     -32.02910000     -69.95170000
H      -43.98460000     -31.66880000     -70.97060000
H      -43.17540000     -31.44190000     -69.46500000
C      -45.22480000     -31.97040000     -69.17090000
C      -45.21770000     -32.10690000     -67.81730000
C      -46.55420000     -31.88490000     -69.78100000
H      -44.33240000     -32.22690000     -67.16600000
C      -47.57450000     -31.93900000     -68.78520000
C      -47.18500000     -31.88100000     -71.11550000
C      -48.55510000     -31.80520000     -71.03550000
S      -46.89340000     -32.08050000     -67.19250000
S      -49.20270000     -31.72380000     -69.37090000
H      -49.18310000     -31.83090000     -71.98990000
