40
Properties=species:S:1:pos:R:3 #=T CELL(abcABC):=T 1.889726e+02=T 90.00000=T Traj:=T positionsangstrom=T Step:=T 0=T Bead:=T pbc="F F F"
C      -45.22210000     -30.48200000     -68.92680000
C      -44.61960000     -31.61590000     -68.40560000
C      -43.49130000     -32.21300000     -68.94430000
C      -42.92970000     -31.77150000     -70.18250000
C      -43.46350000     -30.54510000     -70.63470000
C      -44.50240000     -29.93730000     -69.96450000
H      -46.15910000     -30.11250000     -68.50630000
H      -43.15020000     -33.23650000     -68.54840000
H      -43.07450000     -30.05490000     -71.49230000
H      -44.94050000     -29.04370000     -70.39730000
C      -41.64270000     -32.44620000     -70.63540000
H      -41.30800000     -33.32550000     -70.13080000
H      -40.85710000     -31.72770000     -70.32320000
C      -45.18260000     -32.24470000     -67.10490000
H      -44.47980000     -32.45570000     -66.34080000
H      -45.92920000     -31.67320000     -66.55600000
S      -41.47850000     -32.63160000     -72.45110000
S      -46.07280000     -33.85800000     -67.36880000
C      -43.20110000     -33.09090000     -72.93730000
H      -43.79040000     -32.27150000     -72.58290000
H      -43.23310000     -33.00360000     -74.00030000
C      -47.05960000     -33.71620000     -68.96210000
H      -47.26440000     -32.65820000     -69.20050000
H      -48.08670000     -34.27400000     -68.73870000
C      -46.39590000     -34.46560000     -70.11380000
H      -45.44620000     -34.07880000     -70.23250000
H      -46.16750000     -35.48850000     -69.82460000
C      -43.73160000     -34.41700000     -72.46620000
H      -43.85870000     -34.39570000     -71.36000000
H      -43.02780000     -35.20660000     -72.71100000
C      -45.09670000     -34.56730000     -73.18080000
C      -45.04420000     -34.62430000     -74.60480000
C      -46.47700000     -34.56340000     -72.69220000
H      -44.16140000     -34.63050000     -75.18450000
C      -47.39930000     -34.72980000     -73.71750000
C      -47.19430000     -34.56760000     -71.40300000
C      -48.53730000     -34.64540000     -71.51080000
S      -46.59540000     -34.93600000     -75.31000000
S      -49.06170000     -34.71310000     -73.20440000
H      -49.29960000     -34.33100000     -70.75370000
