40
Properties=species:S:1:pos:R:3 #=T CELL(abcABC):=T 1.889726e+02=T 90.00000=T Traj:=T positionsangstrom=T Step:=T 0=T Bead:=T pbc="F F F"
C      -47.11590000     -31.41360000     -69.17830000
C      -47.65850000     -31.54930000     -70.49490000
C      -48.33070000     -32.75200000     -70.76710000
C      -48.44590000     -33.79120000     -69.83500000
C      -48.14090000     -33.48440000     -68.48690000
C      -47.41320000     -32.32530000     -68.17410000
H      -46.47970000     -30.49750000     -68.83550000
H      -48.59020000     -32.95540000     -71.77520000
H      -48.16170000     -34.26140000     -67.70860000
H      -47.06110000     -32.13140000     -67.17460000
C      -48.84930000     -35.19920000     -70.22690000
H      -49.45990000     -35.07320000     -71.09800000
H      -49.35700000     -35.58180000     -69.40510000
C      -47.70400000     -30.44240000     -71.47510000
H      -47.64470000     -30.92700000     -72.50350000
H      -48.64940000     -29.82940000     -71.47620000
S      -47.41380000     -36.27080000     -70.58820000
S      -46.24160000     -29.35520000     -71.40370000
C      -46.02020000     -35.56250000     -69.60750000
H      -46.43480000     -35.36700000     -68.61170000
H      -45.47330000     -36.53690000     -69.52240000
C      -44.95330000     -30.25830000     -72.26360000
H      -44.14720000     -29.53160000     -72.49810000
H      -45.31680000     -30.67590000     -73.20960000
C      -44.23480000     -31.44900000     -71.48210000
H      -43.63740000     -30.93300000     -70.69120000
H      -45.02480000     -31.97330000     -70.92240000
C      -45.17420000     -34.41900000     -70.26480000
H      -44.70060000     -33.78410000     -69.46150000
H      -45.92290000     -33.72680000     -70.66910000
C      -44.19230000     -34.86520000     -71.29410000
C      -43.82690000     -36.16870000     -71.59110000
C      -43.45660000     -33.92220000     -72.13670000
H      -44.23600000     -37.05770000     -71.17920000
C      -42.44420000     -34.58470000     -72.90600000
C      -43.35890000     -32.43860000     -72.21930000
C      -42.33670000     -32.07480000     -73.11610000
S      -42.47980000     -36.31270000     -72.72040000
S      -41.51440000     -33.42950000     -73.83850000
H      -42.24390000     -31.12270000     -73.59050000
