40
Properties=species:S:1:pos:R:3 #=T CELL(abcABC):=T 1.889726e+02=T 90.00000=T Traj:=T positionsangstrom=T Step:=T 0=T Bead:=T pbc="F F F"
C      -47.31330000     -31.38640000     -69.12680000
C      -47.69440000     -31.53770000     -70.46330000
C      -48.17600000     -32.79730000     -70.81730000
C      -48.42520000     -33.78830000     -69.89350000
C      -48.05350000     -33.59830000     -68.54620000
C      -47.48610000     -32.39490000     -68.22260000
H      -46.84120000     -30.48070000     -68.76020000
H      -48.53560000     -32.97730000     -71.81080000
H      -48.42420000     -34.21650000     -67.69420000
H      -47.15640000     -32.29290000     -67.23540000
C      -48.92580000     -35.15550000     -70.32140000
H      -49.45840000     -35.10940000     -71.33720000
H      -49.63210000     -35.73030000     -69.61610000
C      -47.49930000     -30.37110000     -71.47010000
H      -47.72900000     -30.72830000     -72.46340000
H      -48.26950000     -29.68530000     -71.29520000
S      -47.49430000     -36.29070000     -70.77310000
S      -45.95640000     -29.34500000     -71.22150000
C      -46.15030000     -35.70050000     -69.69240000
H      -46.54650000     -35.23810000     -68.75000000
H      -45.55180000     -36.52280000     -69.33060000
C      -44.70180000     -30.29380000     -72.21750000
H      -43.83670000     -29.63820000     -72.34450000
H      -45.14930000     -30.57040000     -73.15090000
C      -44.27320000     -31.52020000     -71.37680000
H      -43.74380000     -31.25400000     -70.46390000
H      -45.14790000     -32.10080000     -70.94710000
C      -45.37370000     -34.49190000     -70.35290000
H      -44.95180000     -33.83670000     -69.57160000
H      -46.13610000     -33.95200000     -70.87390000
C      -44.35650000     -34.87820000     -71.39050000
C      -43.97160000     -36.16260000     -71.68310000
C      -43.50290000     -33.90280000     -72.09610000
H      -44.40900000     -37.07080000     -71.23710000
C      -42.53930000     -34.48430000     -72.85530000
C      -43.46140000     -32.45960000     -72.26050000
C      -42.39180000     -32.03220000     -73.02930000
S      -42.55260000     -36.23370000     -72.78950000
S      -41.37370000     -33.38840000     -73.66290000
H      -42.07150000     -31.04070000     -73.22620000
