40
Properties=species:S:1:pos:R:3 #=T CELL(abcABC):=T 1.889726e+02=T 90.00000=T Traj:=T positionsangstrom=T Step:=T 0=T Bead:=T pbc="F F F"
C      -44.91910000     -36.47140000     -73.60830000
C      -44.15130000     -35.41560000     -74.08340000
C      -42.98060000     -35.06570000     -73.43030000
C      -42.72350000     -35.55290000     -72.12240000
C      -43.50930000     -36.58530000     -71.65750000
C      -44.55510000     -37.10700000     -72.42840000
H      -45.76790000     -36.75700000     -74.15150000
H      -42.37060000     -34.16020000     -73.78660000
H      -43.42910000     -36.99000000     -70.69240000
H      -45.17470000     -37.99550000     -72.23450000
C      -41.65610000     -35.00510000     -71.27500000
H      -40.72410000     -35.06140000     -71.84960000
H      -41.31750000     -35.60470000     -70.51100000
C      -44.52560000     -34.67470000     -75.35380000
H      -43.82170000     -34.47750000     -76.06160000
H      -45.38150000     -35.13900000     -75.89380000
S      -41.77410000     -33.25240000     -70.80710000
S      -45.12880000     -32.80010000     -74.85060000
C      -43.36360000     -33.29310000     -69.90130000
H      -44.07990000     -33.97520000     -70.41670000
H      -43.19650000     -33.75900000     -68.92330000
C      -46.15010000     -33.04350000     -73.38510000
H      -45.70430000     -33.84660000     -72.74830000
H      -47.21880000     -33.33690000     -73.60760000
C      -46.26250000     -31.76200000     -72.56700000
H      -45.31120000     -31.39190000     -72.17940000
H      -46.69770000     -30.95140000     -73.17170000
C      -44.09430000     -31.92520000     -69.71620000
H      -44.04250000     -31.37460000     -70.68090000
H      -43.51010000     -31.38230000     -68.95480000
C      -45.49910000     -32.03030000     -69.22290000
C      -45.67180000     -32.34330000     -67.86080000
C      -46.71330000     -31.97850000     -69.94020000
H      -44.93280000     -32.32440000     -66.98670000
C      -47.81490000     -32.10890000     -69.06860000
C      -47.16920000     -31.86350000     -71.32010000
C      -48.56910000     -31.89730000     -71.45980000
S      -47.37370000     -32.38080000     -67.38730000
S      -49.32990000     -32.08180000     -69.89910000
H      -49.16550000     -31.71830000     -72.35270000
