40
Properties=species:S:1:pos:R:3 #=T CELL(abcABC):=T 1.889726e+02=T 90.00000=T Traj:=T positionsangstrom=T Step:=T 0=T Bead:=T pbc="F F F"
C      -46.74620000     -32.72570000     -69.84480000
C      -45.63500000     -32.61400000     -68.99560000
C      -44.73080000     -31.53820000     -69.21390000
C      -44.99380000     -30.52110000     -70.24930000
C      -46.24320000     -30.52770000     -70.90330000
C      -47.08200000     -31.63220000     -70.63380000
H      -47.40770000     -33.61860000     -69.78770000
H      -43.85670000     -31.55720000     -68.61310000
H      -46.49880000     -29.82760000     -71.64110000
H      -47.98420000     -31.67500000     -71.23910000
C      -43.90470000     -29.54060000     -70.64600000
H      -43.49380000     -29.11890000     -69.73440000
H      -44.35120000     -28.74360000     -71.26150000
C      -45.40350000     -33.63200000     -67.87890000
H      -44.60020000     -33.22180000     -67.25680000
H      -46.23460000     -33.74530000     -67.21020000
S      -42.54840000     -30.37720000     -71.57720000
S      -44.87840000     -35.32820000     -68.57720000
C      -43.57970000     -31.21780000     -72.90040000
H      -44.54990000     -30.65900000     -72.96370000
H      -43.15940000     -31.04170000     -73.86970000
C      -43.58040000     -34.75020000     -69.75770000
H      -42.56760000     -34.75130000     -69.32200000
H      -43.94300000     -33.78820000     -69.98680000
C      -43.63540000     -35.56590000     -71.01600000
H      -42.94740000     -35.17500000     -71.76430000
H      -43.26900000     -36.52650000     -70.69480000
C      -43.82320000     -32.66710000     -72.59500000
H      -43.65490000     -32.87320000     -71.48170000
H      -43.01540000     -33.21400000     -73.03820000
C      -45.09630000     -33.36040000     -73.03080000
C      -45.95290000     -32.82840000     -73.96890000
C      -45.52750000     -34.71850000     -72.52410000
H      -45.99810000     -31.85910000     -74.33580000
C      -46.77220000     -34.98750000     -72.99650000
C      -44.99680000     -35.73510000     -71.62560000
C      -45.92640000     -36.73260000     -71.44690000
S      -47.47240000     -33.80080000     -74.09750000
S      -47.42640000     -36.48150000     -72.38840000
H      -45.72640000     -37.61210000     -70.80950000
