40
Properties=species:S:1:pos:R:3 #=T CELL(abcABC):=T 1.889726e+02=T 90.00000=T Traj:=T positionsangstrom=T Step:=T 0=T Bead:=T pbc="F F F"
C      -46.86270000     -32.62020000     -69.69100000
C      -45.64190000     -32.61280000     -68.98860000
C      -44.66210000     -31.63360000     -69.35860000
C      -44.94210000     -30.66830000     -70.38780000
C      -46.23660000     -30.67220000     -71.03410000
C      -47.15640000     -31.62830000     -70.62690000
H      -47.57810000     -33.42340000     -69.32160000
H      -43.70660000     -31.58150000     -68.92260000
H      -46.46820000     -29.88990000     -71.74390000
H      -48.16680000     -31.64400000     -71.00420000
C      -43.88450000     -29.61510000     -70.60030000
H      -43.47220000     -29.30900000     -69.63970000
H      -44.29150000     -28.68170000     -71.11530000
C      -45.33270000     -33.48030000     -67.78410000
H      -44.50970000     -33.02740000     -67.17930000
H      -46.20520000     -33.76420000     -67.19550000
S      -42.61560000     -30.29400000     -71.81300000
S      -44.89990000     -35.18510000     -68.31920000
C      -43.63260000     -31.31100000     -72.98910000
H      -44.61900000     -30.83610000     -72.86800000
H      -43.18640000     -31.18710000     -73.99370000
C      -43.47780000     -34.98440000     -69.57420000
H      -42.47710000     -35.23620000     -69.08670000
H      -43.40880000     -33.89860000     -69.63030000
C      -43.68060000     -35.79600000     -70.85620000
H      -42.83850000     -35.73150000     -71.57080000
H      -43.70010000     -36.79310000     -70.46720000
C      -43.73600000     -32.82560000     -72.74540000
H      -43.35320000     -33.14140000     -71.68120000
H      -43.07190000     -33.33560000     -73.44140000
C      -45.09640000     -33.40800000     -72.94710000
C      -45.98270000     -32.76370000     -73.80050000
C      -45.51530000     -34.72390000     -72.52560000
H      -45.95260000     -31.81930000     -74.30460000
C      -46.80300000     -34.90080000     -72.95120000
C      -45.02150000     -35.73250000     -71.64930000
C      -45.90090000     -36.78640000     -71.64480000
S      -47.49270000     -33.68070000     -74.02380000
S      -47.35760000     -36.43910000     -72.53520000
H      -45.73740000     -37.73060000     -71.09420000
