40
Properties=species:S:1:pos:R:3 #=T CELL(abcABC):=T 1.889726e+02=T 90.00000=T Traj:=T positionsangstrom=T Step:=T 0=T Bead:=T pbc="F F F"
C      -44.93900000     -36.61310000     -73.63950000
C      -44.46850000     -35.33180000     -73.99380000
C      -43.40500000     -34.74960000     -73.19310000
C      -42.81490000     -35.48820000     -72.13310000
C      -43.28000000     -36.83790000     -71.90170000
C      -44.35470000     -37.36880000     -72.60270000
H      -45.84100000     -36.94700000     -74.05850000
H      -43.04360000     -33.73050000     -73.25910000
H      -42.98020000     -37.49690000     -71.02630000
H      -44.76030000     -38.28730000     -72.25720000
C      -41.59480000     -35.11010000     -71.32610000
H      -40.67000000     -35.15350000     -71.93340000
H      -41.48470000     -35.92140000     -70.46050000
C      -45.01160000     -34.55990000     -75.15480000
H      -44.29230000     -34.68410000     -75.99940000
H      -45.89830000     -35.04740000     -75.51680000
S      -41.70270000     -33.33240000     -70.69760000
S      -45.29750000     -32.72930000     -74.95770000
C      -43.37000000     -33.36050000     -69.99820000
H      -44.03800000     -33.93680000     -70.65880000
H      -43.43340000     -33.75830000     -68.98270000
C      -46.30470000     -32.78750000     -73.43960000
H      -45.93620000     -33.72290000     -72.89340000
H      -47.34720000     -33.01250000     -73.82330000
C      -46.30510000     -31.52950000     -72.55760000
H      -45.29300000     -31.23140000     -72.23980000
H      -46.66300000     -30.69200000     -73.19950000
C      -43.98570000     -31.92680000     -69.87240000
H      -43.96680000     -31.49790000     -70.93310000
H      -43.29390000     -31.34810000     -69.19600000
C      -45.34840000     -32.04700000     -69.31610000
C      -45.47260000     -32.20110000     -67.95290000
C      -46.68910000     -31.92220000     -69.91230000
H      -44.70210000     -32.38170000     -67.27510000
C      -47.66370000     -32.20450000     -69.02340000
C      -47.13530000     -31.77780000     -71.27660000
C      -48.51270000     -31.97790000     -71.37790000
S      -47.17670000     -32.37100000     -67.38960000
S      -49.27610000     -32.18330000     -69.77540000
H      -49.18600000     -32.11080000     -72.20470000
