40
Properties=species:S:1:pos:R:3 #=T CELL(abcABC):=T 1.889726e+02=T 90.00000=T Traj:=T positionsangstrom=T Step:=T 0=T Bead:=T pbc="F F F"
C      -46.57150000     -32.10070000     -74.49340000
C      -47.64250000     -32.32170000     -73.57080000
C      -47.92500000     -33.63480000     -73.06140000
C      -47.14160000     -34.69620000     -73.45990000
C      -46.27970000     -34.55450000     -74.51380000
C      -45.95250000     -33.23740000     -74.99080000
H      -46.32160000     -31.07100000     -74.79310000
H      -48.65050000     -33.75370000     -72.17260000
H      -45.69470000     -35.44780000     -74.81940000
H      -45.15410000     -32.94850000     -75.70380000
C      -47.30770000     -36.13590000     -72.91730000
H      -47.52940000     -36.85490000     -73.73850000
H      -48.13520000     -36.13520000     -72.09730000
C      -48.49930000     -31.14080000     -73.13110000
H      -48.36110000     -30.27850000     -73.78410000
H      -49.58210000     -31.35290000     -73.21160000
S      -45.83200000     -36.87520000     -71.94670000
S      -48.07070000     -30.64170000     -71.41160000
C      -46.29890000     -36.28220000     -70.20610000
H      -47.36570000     -36.41960000     -70.00150000
H      -45.88760000     -37.02970000     -69.52610000
C      -46.31630000     -31.16020000     -71.13240000
H      -45.83930000     -30.32700000     -71.52590000
H      -45.94450000     -32.03690000     -71.78950000
C      -45.84600000     -31.39190000     -69.69350000
H      -45.89240000     -30.42130000     -69.15660000
H      -46.50940000     -32.14210000     -69.26660000
C      -45.90200000     -34.80700000     -69.99830000
H      -46.49640000     -34.37000000     -69.22990000
H      -46.20890000     -34.35360000     -70.97410000
C      -44.43760000     -34.44470000     -69.82500000
C      -43.52130000     -35.40820000     -69.94210000
C      -43.85370000     -33.16670000     -69.66390000
H      -43.67940000     -36.44470000     -70.00460000
C      -42.42800000     -33.07340000     -69.68860000
C      -44.37710000     -31.77480000     -69.59580000
C      -43.37070000     -30.84970000     -69.48970000
S      -41.83500000     -34.72730000     -69.81420000
S      -41.77140000     -31.53090000     -69.53160000
H      -43.57890000     -29.78980000     -69.45520000
