40
Properties=species:S:1:pos:R:3 #=T CELL(abcABC):=T 1.889726e+02=T 90.00000=T Traj:=T positionsangstrom=T Step:=T 0=T Bead:=T pbc="F F F"
C      -44.91780000     -36.45740000     -73.57770000
C      -44.26650000     -35.25700000     -73.96170000
C      -43.24260000     -34.79400000     -73.15800000
C      -42.85010000     -35.55730000     -72.04960000
C      -43.40870000     -36.81030000     -71.77540000
C      -44.42960000     -37.24110000     -72.61230000
H      -45.71190000     -36.81190000     -74.13100000
H      -42.78730000     -33.90970000     -73.64550000
H      -42.97500000     -37.44060000     -71.02960000
H      -44.75560000     -38.25490000     -72.43880000
C      -41.61660000     -35.08650000     -71.29650000
H      -40.65090000     -34.98340000     -71.91730000
H      -41.61050000     -35.68060000     -70.43250000
C      -44.84870000     -34.55520000     -75.17000000
H      -44.06350000     -34.49770000     -75.91670000
H      -45.74640000     -35.09790000     -75.59300000
S      -41.75150000     -33.31100000     -70.79380000
S      -45.20700000     -32.77810000     -74.85880000
C      -43.36930000     -33.32020000     -69.87000000
H      -44.01040000     -34.05430000     -70.35290000
H      -43.12460000     -33.67920000     -68.86850000
C      -46.33780000     -32.95070000     -73.33850000
H      -45.90680000     -33.77050000     -72.77000000
H      -47.32370000     -33.23890000     -73.60840000
C      -46.28870000     -31.62130000     -72.58720000
H      -45.28120000     -31.40680000     -72.35850000
H      -46.65670000     -30.81780000     -73.25480000
C      -44.00310000     -31.96250000     -69.88390000
H      -43.98650000     -31.44730000     -70.85520000
H      -43.46560000     -31.27040000     -69.32320000
C      -45.35410000     -32.04000000     -69.29270000
C      -45.59530000     -32.16950000     -67.91590000
C      -46.67680000     -31.99090000     -69.95630000
H      -44.86040000     -32.49420000     -67.23520000
C      -47.72470000     -32.31610000     -69.07160000
C      -47.10040000     -31.75270000     -71.34250000
C      -48.51010000     -31.79900000     -71.42910000
S      -47.27090000     -32.39590000     -67.40390000
S      -49.29320000     -32.18240000     -69.90300000
H      -49.06640000     -31.80760000     -72.31900000
