40
Properties=species:S:1:pos:R:3 #=T CELL(abcABC):=T 1.889726e+02=T 90.00000=T Traj:=T positionsangstrom=T Step:=T 0=T Bead:=T pbc="F F F"
C      -46.66250000     -32.32640000     -74.85700000
C      -47.46580000     -32.40420000     -73.67670000
C      -47.72230000     -33.68840000     -73.07340000
C      -47.14890000     -34.79620000     -73.64910000
C      -46.10720000     -34.68280000     -74.63700000
C      -45.89640000     -33.45130000     -75.26770000
H      -46.63360000     -31.42570000     -75.44590000
H      -48.52740000     -33.71250000     -72.34420000
H      -45.63880000     -35.68510000     -74.92480000
H      -45.25240000     -33.34860000     -76.16060000
C      -47.47230000     -36.19920000     -73.07550000
H      -47.57250000     -36.97820000     -73.83470000
H      -48.32040000     -36.16840000     -72.41640000
C      -48.30910000     -31.26940000     -73.14990000
H      -48.29750000     -30.35490000     -73.75280000
H      -49.39550000     -31.58730000     -73.19890000
S      -45.92060000     -36.74460000     -72.05740000
S      -47.96820000     -30.70950000     -71.33240000
C      -46.27900000     -36.20200000     -70.27980000
H      -47.34690000     -36.35490000     -70.01390000
H      -45.62530000     -36.84520000     -69.65240000
C      -46.20870000     -31.31930000     -71.06860000
H      -45.54630000     -30.57800000     -71.51200000
H      -45.99650000     -32.34980000     -71.58490000
C      -45.96360000     -31.51070000     -69.56550000
H      -46.29400000     -30.59880000     -68.93080000
H      -46.57760000     -32.27520000     -69.19200000
C      -45.85360000     -34.83270000     -69.92970000
H      -46.27120000     -34.51880000     -68.95240000
H      -46.32970000     -34.10590000     -70.61980000
C      -44.36980000     -34.42980000     -69.94340000
C      -43.32530000     -35.31370000     -70.06410000
C      -43.91360000     -33.11870000     -69.64150000
H      -43.26410000     -36.32290000     -70.40110000
C      -42.51410000     -32.96880000     -69.48900000
C      -44.50070000     -31.84530000     -69.44620000
C      -43.64330000     -30.83590000     -69.21220000
S      -41.75360000     -34.58160000     -69.79840000
S      -41.98270000     -31.30030000     -69.24950000
H      -44.01070000     -29.85890000     -69.01060000
