40
Properties=species:S:1:pos:R:3 #=T CELL(abcABC):=T 1.889726e+02=T 90.00000=T Traj:=T positionsangstrom=T Step:=T 0=T Bead:=T pbc="F F F"
C      -43.37090000     -30.12660000     -69.98680000
C      -43.80810000     -31.13810000     -69.14580000
C      -43.23520000     -32.40820000     -69.38330000
C      -42.30750000     -32.70670000     -70.33410000
C      -41.89920000     -31.62560000     -71.20320000
C      -42.41750000     -30.33450000     -70.98500000
H      -43.80010000     -29.11120000     -69.85090000
H      -43.54490000     -33.31520000     -68.75030000
H      -41.16820000     -31.77350000     -72.02280000
H      -42.11180000     -29.46610000     -71.63710000
C      -41.65070000     -34.04620000     -70.23530000
H      -41.67900000     -34.66090000     -69.29350000
H      -40.54090000     -33.75340000     -70.10790000
C      -44.64960000     -30.79570000     -68.03470000
H      -44.09160000     -30.64540000     -67.12830000
H      -45.22090000     -29.88000000     -68.25010000
S      -41.83560000     -35.23140000     -71.61180000
S      -45.85490000     -32.13710000     -67.61590000
C      -43.38360000     -34.82360000     -72.66890000
H      -43.52280000     -33.69470000     -72.68290000
H      -43.21280000     -35.06960000     -73.72400000
C      -46.68490000     -32.04340000     -69.31230000
H      -46.13700000     -31.29030000     -69.87430000
H      -47.78290000     -31.76650000     -69.33480000
C      -46.54830000     -33.37630000     -70.05310000
H      -45.50810000     -33.61500000     -70.13380000
H      -46.93270000     -34.21950000     -69.46570000
C      -44.67300000     -35.44900000     -72.08340000
H      -44.90480000     -35.12560000     -71.02480000
H      -44.42770000     -36.51430000     -71.90130000
C      -45.92970000     -35.21650000     -72.88520000
C      -46.12660000     -35.78900000     -74.09720000
C      -47.10650000     -34.42240000     -72.46200000
H      -45.58670000     -36.52590000     -74.67590000
C      -47.99260000     -34.26680000     -73.52210000
C      -47.35050000     -33.50970000     -71.37920000
C      -48.55750000     -32.87130000     -71.49430000
S      -47.66940000     -35.39310000     -74.83240000
S      -49.32170000     -33.24410000     -73.07750000
H      -48.88870000     -32.12570000     -70.79290000
