40
Properties=species:S:1:pos:R:3 #=T CELL(abcABC):=T 1.889726e+02=T 90.00000=T Traj:=T positionsangstrom=T Step:=T 0=T Bead:=T pbc="F F F"
C      -43.30770000     -30.44830000     -70.42140000
C      -43.53790000     -31.31910000     -69.31240000
C      -42.83440000     -32.52130000     -69.23250000
C      -42.00370000     -32.96330000     -70.27490000
C      -41.78370000     -32.07630000     -71.37930000
C      -42.44500000     -30.84740000     -71.40650000
H      -43.88610000     -29.53330000     -70.43550000
H      -43.05000000     -33.06020000     -68.32130000
H      -41.07750000     -32.22190000     -72.18350000
H      -42.26100000     -30.23040000     -72.27040000
C      -41.36360000     -34.31290000     -70.09160000
H      -41.50940000     -34.71460000     -69.12100000
H      -40.34890000     -34.29040000     -70.42670000
C      -44.56740000     -30.81690000     -68.28050000
H      -44.10700000     -30.52660000     -67.38050000
H      -45.21620000     -30.01700000     -68.73270000
S      -42.04370000     -35.40850000     -71.35740000
S      -45.72160000     -32.20190000     -67.69810000
C      -43.59650000     -34.61430000     -71.98040000
H      -43.85100000     -33.74610000     -71.36260000
H      -43.36740000     -34.29680000     -73.01140000
C      -46.85280000     -32.35690000     -69.09270000
H      -46.92940000     -31.39660000     -69.59290000
H      -47.89220000     -32.60420000     -68.82000000
C      -46.49550000     -33.42940000     -70.05860000
H      -45.37560000     -33.37030000     -70.38960000
H      -46.62030000     -34.41210000     -69.53570000
C      -44.80520000     -35.57970000     -72.12190000
H      -45.16660000     -35.68390000     -71.09140000
H      -44.42670000     -36.55490000     -72.47950000
C      -45.96360000     -35.04680000     -72.96030000
C      -46.24850000     -35.54820000     -74.20020000
C      -47.08290000     -34.16290000     -72.50730000
H      -45.65020000     -36.27990000     -74.67850000
C      -48.04300000     -33.98640000     -73.51960000
C      -47.37990000     -33.40140000     -71.32440000
C      -48.58370000     -32.67030000     -71.44410000
S      -47.84290000     -34.91230000     -74.96960000
S      -49.34930000     -32.97530000     -72.98720000
H      -49.04360000     -32.03350000     -70.71580000
