40
Properties=species:S:1:pos:R:3 #=T CELL(abcABC):=T 1.889726e+02=T 90.00000=T Traj:=T positionsangstrom=T Step:=T 0=T Bead:=T pbc="F F F"
C      -43.32870000     -30.31470000     -70.26960000
C      -43.61410000     -31.20690000     -69.24020000
C      -42.98370000     -32.39960000     -69.28480000
C      -42.11740000     -32.75730000     -70.33940000
C      -41.78570000     -31.82980000     -71.29760000
C      -42.46990000     -30.58620000     -71.28430000
H      -43.86850000     -29.34650000     -70.21350000
H      -43.00610000     -33.09240000     -68.44810000
H      -40.93470000     -31.96330000     -71.97600000
H      -42.28020000     -29.84530000     -72.05920000
C      -41.52140000     -34.18270000     -70.21110000
H      -41.81790000     -34.69450000     -69.29240000
H      -40.43960000     -34.13860000     -70.21550000
C      -44.54620000     -30.81060000     -68.09960000
H      -44.02040000     -30.68230000     -67.23660000
H      -45.05030000     -29.81410000     -68.32110000
S      -41.90810000     -35.29140000     -71.68280000
S      -45.83110000     -32.03260000     -67.67530000
C      -43.57860000     -34.61950000     -72.26990000
H      -43.81800000     -33.71270000     -71.67770000
H      -43.44940000     -34.47720000     -73.34090000
C      -46.98770000     -32.30140000     -69.18090000
H      -46.94570000     -31.33160000     -69.70410000
H      -47.92440000     -32.59620000     -68.71660000
C      -46.47150000     -33.34860000     -70.09730000
H      -45.36990000     -33.26590000     -70.33570000
H      -46.55280000     -34.30340000     -69.55000000
C      -44.78510000     -35.58360000     -72.04920000
H      -44.94950000     -35.58550000     -71.00090000
H      -44.53200000     -36.55700000     -72.46570000
C      -46.01710000     -35.26430000     -72.81740000
C      -46.15390000     -35.63050000     -74.09240000
C      -47.06330000     -34.31520000     -72.44300000
H      -45.56810000     -36.40880000     -74.59040000
C      -48.05670000     -34.21990000     -73.41720000
C      -47.35940000     -33.46180000     -71.30890000
C      -48.57310000     -32.78390000     -71.51650000
S      -47.67820000     -35.18290000     -74.83480000
S      -49.35610000     -33.20860000     -72.98290000
H      -48.92650000     -32.02130000     -70.84440000
