40
Properties=species:S:1:pos:R:3 #=T CELL(abcABC):=T 1.889726e+02=T 90.00000=T Traj:=T positionsangstrom=T Step:=T 0=T Bead:=T pbc="F F F"
C      -43.51110000     -30.67890000     -70.58000000
C      -43.60320000     -31.37290000     -69.39640000
C      -42.97220000     -32.61030000     -69.25710000
C      -41.96850000     -32.96260000     -70.17830000
C      -41.66320000     -32.07490000     -71.21480000
C      -42.44820000     -30.96300000     -71.43260000
H      -44.16120000     -29.81300000     -70.78440000
H      -43.20630000     -33.21650000     -68.39900000
H      -40.90450000     -32.26670000     -71.91690000
H      -42.19950000     -30.32780000     -72.21250000
C      -41.42820000     -34.35680000     -70.22110000
H      -41.65750000     -34.72860000     -69.20860000
H      -40.32120000     -34.51930000     -70.34770000
C      -44.53260000     -30.88060000     -68.25910000
H      -43.90670000     -30.59450000     -67.38150000
H      -45.08830000     -29.98100000     -68.48570000
S      -42.00780000     -35.22480000     -71.71860000
S      -45.75280000     -32.10720000     -67.59920000
C      -43.69960000     -34.52990000     -71.91870000
H      -44.08070000     -34.07680000     -71.00670000
H      -43.62930000     -33.80860000     -72.79780000
C      -46.99010000     -32.21570000     -69.03900000
H      -47.04780000     -31.16670000     -69.38590000
H      -47.95510000     -32.58420000     -68.62630000
C      -46.48070000     -33.16360000     -70.06720000
H      -45.51530000     -32.84810000     -70.38030000
H      -46.32190000     -34.13910000     -69.56780000
C      -44.74130000     -35.62090000     -72.16740000
H      -45.04090000     -36.07330000     -71.22600000
H      -44.45860000     -36.49990000     -72.69370000
C      -45.97490000     -35.10470000     -72.85070000
C      -46.24630000     -35.50390000     -74.12280000
C      -47.02360000     -34.19140000     -72.43030000
H      -45.55550000     -36.15400000     -74.62390000
C      -48.02910000     -34.10660000     -73.39550000
C      -47.33700000     -33.31340000     -71.26540000
C      -48.61270000     -32.72930000     -71.37770000
S      -47.66520000     -34.98910000     -74.92040000
S      -49.38270000     -33.07360000     -72.96490000
H      -49.09530000     -32.15290000     -70.61630000
