40
Properties=species:S:1:pos:R:3 #=T CELL(abcABC):=T 1.889726e+02=T 90.00000=T Traj:=T positionsangstrom=T Step:=T 0=T Bead:=T pbc="F F F"
C      -47.31430000     -31.96340000     -74.36400000
C      -47.83420000     -32.06560000     -73.08770000
C      -48.17030000     -33.31820000     -72.47610000
C      -47.82590000     -34.46780000     -73.16100000
C      -47.21550000     -34.35880000     -74.39320000
C      -46.91280000     -33.12020000     -75.00510000
H      -47.09270000     -30.95330000     -74.70240000
H      -48.69730000     -33.31560000     -71.56610000
H      -47.02300000     -35.39450000     -74.90360000
H      -46.43280000     -33.11170000     -75.99100000
C      -47.99770000     -35.82180000     -72.55130000
H      -48.31460000     -36.66790000     -73.19970000
H      -48.84170000     -35.71090000     -71.91610000
C      -48.22280000     -30.78500000     -72.35800000
H      -48.07910000     -29.85420000     -72.91710000
H      -49.32370000     -30.80660000     -72.22550000
S      -46.62880000     -36.48370000     -71.46450000
S      -47.44570000     -30.65470000     -70.69500000
C      -46.71830000     -35.60300000     -69.81660000
H      -47.75550000     -35.42890000     -69.53230000
H      -46.23100000     -36.37210000     -69.15660000
C      -45.67900000     -30.94830000     -71.04620000
H      -45.26340000     -30.21520000     -71.70980000
H      -45.48270000     -31.87640000     -71.51660000
C      -44.86420000     -31.01440000     -69.69510000
H      -44.69360000     -30.06630000     -69.14500000
H      -45.44680000     -31.59960000     -68.97860000
C      -45.92140000     -34.30210000     -69.88120000
H      -46.01900000     -33.79860000     -68.86800000
H      -46.42400000     -33.58770000     -70.52910000
C      -44.43920000     -34.41090000     -70.17530000
C      -43.76210000     -35.60310000     -70.45570000
C      -43.49500000     -33.26610000     -70.08400000
H      -44.17780000     -36.52460000     -70.71830000
C      -42.19270000     -33.66300000     -70.36940000
C      -43.62480000     -31.82880000     -69.87150000
C      -42.41950000     -31.22320000     -70.02370000
S      -42.00900000     -35.37050000     -70.59930000
S      -41.05250000     -32.35010000     -70.26880000
H      -42.22460000     -30.21400000     -70.03570000
