40
Properties=species:S:1:pos:R:3 #=T CELL(abcABC):=T 1.889726e+02=T 90.00000=T Traj:=T positionsangstrom=T Step:=T 0=T Bead:=T pbc="F F F"
C      -47.15430000     -31.84070000     -74.03170000
C      -48.02870000     -32.01930000     -72.98130000
C      -48.24450000     -33.29570000     -72.42350000
C      -47.74160000     -34.46000000     -73.05300000
C      -46.98520000     -34.31320000     -74.24130000
C      -46.76440000     -32.97420000     -74.73260000
H      -46.83670000     -30.87130000     -74.49580000
H      -48.97560000     -33.37630000     -71.64970000
H      -46.73260000     -35.15350000     -74.85610000
H      -46.17890000     -32.88210000     -75.62580000
C      -48.15510000     -35.78230000     -72.46770000
H      -48.52360000     -36.51300000     -73.21700000
H      -49.02540000     -35.56620000     -71.79050000
C      -48.49730000     -30.71780000     -72.28750000
H      -48.52130000     -29.85700000     -72.98850000
H      -49.49090000     -30.77130000     -71.95250000
S      -46.66400000     -36.59660000     -71.67000000
S      -47.53520000     -30.34210000     -70.75910000
C      -46.54310000     -35.81460000     -70.01020000
H      -47.57510000     -35.72340000     -69.57710000
H      -46.00090000     -36.50950000     -69.41630000
C      -45.82370000     -31.08890000     -71.09250000
H      -45.23920000     -30.42090000     -71.66110000
H      -45.96310000     -31.95600000     -71.67900000
C      -45.07870000     -31.41940000     -69.74700000
H      -45.10860000     -30.46510000     -69.21710000
H      -45.67540000     -32.08680000     -69.16010000
C      -45.84030000     -34.53530000     -69.98780000
H      -45.91090000     -34.09150000     -68.98560000
H      -46.35600000     -33.84150000     -70.62670000
C      -44.34300000     -34.49990000     -70.29760000
C      -43.54680000     -35.65010000     -70.63640000
C      -43.49640000     -33.36540000     -70.14990000
H      -43.73400000     -36.66690000     -70.39580000
C      -42.14160000     -33.66170000     -70.33240000
C      -43.68850000     -31.93350000     -69.98520000
C      -42.54220000     -31.23440000     -69.97620000
S      -41.84030000     -35.32210000     -70.60730000
S      -41.07550000     -32.23620000     -70.15020000
H      -42.27330000     -30.22300000     -69.80330000
