40
Properties=species:S:1:pos:R:3 #=T CELL(abcABC):=T 1.889726e+02=T 90.00000=T Traj:=T positionsangstrom=T Step:=T 0=T Bead:=T pbc="F F F"
C      -47.11130000     -31.88670000     -74.18190000
C      -47.90860000     -31.93070000     -73.02350000
C      -48.24070000     -33.23410000     -72.46880000
C      -47.76530000     -34.38510000     -73.09760000
C      -47.02970000     -34.36250000     -74.30200000
C      -46.73340000     -33.12800000     -74.77470000
H      -46.75160000     -31.04010000     -74.68510000
H      -48.98490000     -33.36350000     -71.68610000
H      -46.65940000     -35.21840000     -74.76690000
H      -46.21950000     -33.10470000     -75.74650000
C      -48.01380000     -35.74520000     -72.51610000
H      -48.55740000     -36.36040000     -73.26930000
H      -48.59240000     -35.65130000     -71.55960000
C      -48.42240000     -30.72620000     -72.32170000
H      -48.27560000     -29.93230000     -73.00420000
H      -49.50900000     -30.69460000     -72.12160000
S      -46.58440000     -36.69050000     -71.78420000
S      -47.60470000     -30.52680000     -70.66320000
C      -46.53640000     -35.89420000     -70.11470000
H      -47.52760000     -35.82440000     -69.67080000
H      -45.96050000     -36.54930000     -69.43770000
C      -45.85770000     -31.07260000     -70.99840000
H      -45.20970000     -30.39460000     -71.62650000
H      -45.84370000     -31.98150000     -71.47060000
C      -45.00020000     -31.22670000     -69.71720000
H      -44.82620000     -30.23670000     -69.20360000
H      -45.54770000     -31.91880000     -69.04390000
C      -45.90210000     -34.46160000     -69.98190000
H      -46.16490000     -34.04800000     -69.00190000
H      -46.47780000     -33.81260000     -70.64780000
C      -44.38510000     -34.39590000     -70.13280000
C      -43.65670000     -35.56120000     -70.19470000
C      -43.51980000     -33.22790000     -70.14910000
H      -44.19680000     -36.51970000     -70.38740000
C      -42.19030000     -33.58000000     -70.21530000
C      -43.64740000     -31.83640000     -70.04800000
C      -42.50650000     -31.15030000     -70.19680000
S      -41.91700000     -35.33580000     -70.32550000
S      -41.09560000     -32.25250000     -70.39610000
H      -42.29520000     -30.05320000     -70.30850000
