40
Properties=species:S:1:pos:R:3 #=T CELL(abcABC):=T 1.889726e+02=T 90.00000=T Traj:=T positionsangstrom=T Step:=T 0=T Bead:=T pbc="F F F"
C      -47.23950000     -31.90660000     -74.20140000
C      -48.00420000     -31.96310000     -72.96160000
C      -48.33430000     -33.25640000     -72.51600000
C      -47.71650000     -34.38400000     -73.06740000
C      -46.87920000     -34.32360000     -74.19660000
C      -46.74410000     -33.01700000     -74.81670000
H      -47.04370000     -30.93330000     -74.67080000
H      -48.83860000     -33.40370000     -71.57200000
H      -46.41580000     -35.06560000     -74.69240000
H      -46.06410000     -32.96170000     -75.67900000
C      -48.08280000     -35.77040000     -72.50840000
H      -48.17930000     -36.45480000     -73.36610000
H      -48.95120000     -35.87860000     -71.90270000
C      -48.49770000     -30.69830000     -72.31540000
H      -48.32330000     -29.83160000     -72.97630000
H      -49.51980000     -30.71820000     -71.85280000
S      -46.62740000     -36.56400000     -71.72300000
S      -47.54840000     -30.46550000     -70.69080000
C      -46.54470000     -35.80090000     -70.02190000
H      -47.57050000     -35.63500000     -69.71580000
H      -46.15870000     -36.63510000     -69.43560000
C      -45.78220000     -30.91070000     -71.06920000
H      -45.27070000     -30.16240000     -71.85890000
H      -45.90250000     -31.83310000     -71.63010000
C      -45.05670000     -31.14790000     -69.75770000
H      -44.63450000     -30.19650000     -69.40040000
H      -45.70180000     -31.62210000     -68.96470000
C      -45.82210000     -34.47240000     -69.98090000
H      -46.09860000     -33.95750000     -69.03390000
H      -46.26860000     -33.82820000     -70.80310000
C      -44.32510000     -34.62430000     -70.14660000
C      -43.55970000     -35.77010000     -70.25760000
C      -43.49100000     -33.41330000     -70.18620000
H      -44.01860000     -36.71690000     -70.44830000
C      -42.13820000     -33.66460000     -70.38860000
C      -43.74320000     -31.95560000     -69.99210000
C      -42.60830000     -31.26750000     -69.96320000
S      -41.81670000     -35.38180000     -70.49900000
S      -41.16130000     -32.21380000     -70.28250000
H      -42.47360000     -30.15870000     -69.84650000
