40
Properties=species:S:1:pos:R:3 #=T CELL(abcABC):=T 1.889726e+02=T 90.00000=T Traj:=T positionsangstrom=T Step:=T 0=T Bead:=T pbc="F F F"
C      -47.18790000     -31.90310000     -74.09660000
C      -47.97550000     -31.99640000     -73.00430000
C      -48.37190000     -33.24870000     -72.45770000
C      -47.83260000     -34.48540000     -72.95760000
C      -46.93540000     -34.37580000     -74.07540000
C      -46.65140000     -33.13250000     -74.61910000
H      -46.82460000     -30.93440000     -74.58370000
H      -48.98970000     -33.24590000     -71.54520000
H      -46.35890000     -35.31940000     -74.34960000
H      -46.21230000     -33.06880000     -75.60180000
C      -48.19980000     -35.84710000     -72.40150000
H      -48.68410000     -36.48700000     -73.12930000
H      -48.89450000     -35.60520000     -71.53990000
C      -48.48310000     -30.68840000     -72.29070000
H      -48.38240000     -29.83390000     -73.01840000
H      -49.52840000     -30.81760000     -71.97760000
S      -46.73820000     -36.71430000     -71.69980000
S      -47.43650000     -30.36580000     -70.69650000
C      -46.60190000     -35.81250000     -70.10010000
H      -47.60500000     -35.67480000     -69.63270000
H      -46.04560000     -36.44460000     -69.36650000
C      -45.73820000     -30.99570000     -71.10290000
H      -45.19520000     -30.25110000     -71.66330000
H      -45.81060000     -32.03150000     -71.64840000
C      -44.90600000     -31.10280000     -69.74860000
H      -44.52280000     -30.13540000     -69.31000000
H      -45.51530000     -31.55860000     -68.95010000
C      -45.86350000     -34.48790000     -70.17800000
H      -46.26750000     -33.89960000     -69.31580000
H      -46.22780000     -33.92430000     -71.05230000
C      -44.38500000     -34.46950000     -70.22280000
C      -43.65870000     -35.62140000     -70.55240000
C      -43.52330000     -33.33980000     -70.15860000
H      -43.99410000     -36.64860000     -70.51360000
C      -42.17370000     -33.66000000     -70.35880000
C      -43.65840000     -31.88100000     -69.82680000
C      -42.47940000     -31.23530000     -69.83140000
S      -41.88020000     -35.25130000     -70.81420000
S      -41.07940000     -32.31370000     -70.15500000
H      -42.32440000     -30.23000000     -69.58220000
