40
Properties=species:S:1:pos:R:3 #=T CELL(abcABC):=T 1.889726e+02=T 90.00000=T Traj:=T positionsangstrom=T Step:=T 0=T Bead:=T pbc="F F F"
C      -47.06080000     -31.90850000     -74.35970000
C      -47.83970000     -31.96410000     -73.21870000
C      -48.13190000     -33.15740000     -72.56890000
C      -47.77550000     -34.36380000     -73.13540000
C      -47.07650000     -34.36740000     -74.40020000
C      -46.77570000     -33.16580000     -75.03780000
H      -46.85350000     -30.86110000     -74.66640000
H      -48.70820000     -33.09620000     -71.60810000
H      -46.81160000     -35.29420000     -74.80640000
H      -46.11480000     -33.21760000     -75.91890000
C      -48.13820000     -35.75720000     -72.55920000
H      -48.36000000     -36.42530000     -73.39510000
H      -49.05150000     -35.75050000     -71.87630000
C      -48.11900000     -30.67940000     -72.42980000
H      -47.71020000     -29.88420000     -73.05810000
H      -49.22400000     -30.50370000     -72.24820000
S      -46.75020000     -36.57010000     -71.60950000
S      -47.48990000     -30.59790000     -70.64540000
C      -46.57560000     -35.76410000     -69.94880000
H      -47.57060000     -35.86990000     -69.46750000
H      -45.94010000     -36.53780000     -69.48290000
C      -45.63500000     -30.70700000     -70.80990000
H      -45.17750000     -29.75880000     -71.06310000
H      -45.54720000     -31.37250000     -71.69070000
C      -45.02680000     -31.24720000     -69.45070000
H      -44.82350000     -30.35980000     -68.83050000
H      -45.81380000     -31.92640000     -69.07540000
C      -45.92770000     -34.38630000     -69.97330000
H      -46.17940000     -33.85880000     -68.98880000
H      -46.44020000     -33.70080000     -70.74650000
C      -44.39990000     -34.40630000     -70.31420000
C      -43.73790000     -35.58470000     -70.60730000
C      -43.50280000     -33.30470000     -70.12810000
H      -44.19530000     -36.58410000     -70.70800000
C      -42.17620000     -33.69220000     -70.35510000
C      -43.66300000     -31.96900000     -69.70420000
C      -42.46960000     -31.26740000     -69.69110000
S      -42.02160000     -35.37940000     -70.71590000
S      -41.11420000     -32.34400000     -70.12320000
H      -42.25140000     -30.31190000     -69.33480000
