40
Properties=species:S:1:pos:R:3 #=T CELL(abcABC):=T 1.889726e+02=T 90.00000=T Traj:=T positionsangstrom=T Step:=T 0=T Bead:=T pbc="F F F"
C      -45.41520000     -36.79010000     -73.42400000
C      -44.43440000     -36.38110000     -72.49350000
C      -43.62960000     -35.27500000     -72.79310000
C      -43.86430000     -34.55840000     -73.96210000
C      -44.89740000     -34.91990000     -74.84420000
C      -45.64900000     -36.08500000     -74.61060000
H      -46.13680000     -37.45730000     -73.11510000
H      -42.68250000     -35.03590000     -72.20320000
H      -45.10140000     -34.28430000     -75.73250000
H      -46.42590000     -36.31370000     -75.38810000
C      -42.98860000     -33.39630000     -74.29210000
H      -42.76740000     -33.43530000     -75.39410000
H      -42.05310000     -33.46880000     -73.79950000
C      -44.21690000     -37.28850000     -71.29570000
H      -44.06500000     -38.36760000     -71.56620000
H      -43.42120000     -36.91360000     -70.66690000
S      -43.47180000     -31.63340000     -73.72910000
S      -45.77030000     -37.36650000     -70.18860000
C      -45.33710000     -31.64710000     -73.89430000
H      -45.63980000     -30.63780000     -74.23080000
H      -45.51720000     -32.33280000     -74.75970000
C      -45.67450000     -35.75160000     -69.32820000
H      -44.67450000     -35.67780000     -68.86420000
H      -46.44850000     -35.78100000     -68.54700000
C      -46.08650000     -34.57680000     -70.21930000
H      -45.31990000     -34.50300000     -70.94230000
H      -47.08790000     -34.73160000     -70.75130000
C      -46.03370000     -32.14210000     -72.58550000
H      -45.63720000     -33.14570000     -72.43000000
H      -47.07400000     -32.42510000     -72.75710000
C      -45.87350000     -31.31700000     -71.31850000
C      -45.85350000     -29.92460000     -71.33600000
C      -46.01380000     -31.91400000     -69.95860000
H      -45.65900000     -29.39340000     -72.23550000
C      -46.13300000     -30.87440000     -69.05260000
C      -46.12280000     -33.26850000     -69.41520000
C      -46.41610000     -33.20710000     -68.07600000
S      -46.05660000     -29.24550000     -69.73390000
S      -46.36620000     -31.57980000     -67.43350000
H      -46.53120000     -34.06090000     -67.35890000
