40
Properties=species:S:1:pos:R:3 #=T CELL(abcABC):=T 1.889726e+02=T 90.00000=T Traj:=T positionsangstrom=T Step:=T 0=T Bead:=T pbc="F F F"
C      -45.91380000     -36.49100000     -73.12740000
C      -44.68730000     -36.14190000     -72.46720000
C      -43.83380000     -35.22160000     -73.14100000
C      -44.18990000     -34.64100000     -74.36960000
C      -45.41360000     -35.02030000     -74.96580000
C      -46.24340000     -35.97010000     -74.39610000
H      -46.68000000     -37.00090000     -72.53980000
H      -42.83350000     -35.11130000     -72.72720000
H      -45.69890000     -34.66880000     -75.95610000
H      -47.16420000     -36.18290000     -74.81000000
C      -43.23380000     -33.57850000     -74.88510000
H      -43.38690000     -33.25400000     -75.93230000
H      -42.26530000     -33.95480000     -74.79280000
C      -44.17600000     -36.76940000     -71.24760000
H      -43.74860000     -37.77420000     -71.34480000
H      -43.52930000     -36.15310000     -70.70260000
S      -43.34270000     -31.98030000     -73.92560000
S      -45.46360000     -37.23600000     -69.96120000
C      -45.14510000     -31.72490000     -73.82160000
H      -45.49440000     -30.70780000     -73.85540000
H      -45.67430000     -32.21530000     -74.64880000
C      -45.83000000     -35.70530000     -69.04860000
H      -44.87630000     -35.47490000     -68.46580000
H      -46.65510000     -35.84100000     -68.35190000
C      -46.11150000     -34.57870000     -70.00220000
H      -45.39450000     -34.54230000     -70.87900000
H      -47.00380000     -34.77410000     -70.46010000
C      -45.73390000     -32.32240000     -72.56860000
H      -45.36000000     -33.29930000     -72.30710000
H      -46.80550000     -32.51150000     -72.71040000
C      -45.79690000     -31.46690000     -71.31510000
C      -45.59040000     -30.10690000     -71.37690000
C      -45.91650000     -31.94670000     -69.93000000
H      -45.46630000     -29.35220000     -72.12570000
C      -46.01950000     -30.90880000     -69.01790000
C      -46.15010000     -33.23780000     -69.27890000
C      -46.40730000     -33.12730000     -67.91580000
S      -45.75810000     -29.30460000     -69.81600000
S      -46.36380000     -31.47670000     -67.41830000
H      -46.75310000     -33.92440000     -67.26980000
