40
Properties=species:S:1:pos:R:3 #=T CELL(abcABC):=T 1.889726e+02=T 90.00000=T Traj:=T positionsangstrom=T Step:=T 0=T Bead:=T pbc="F F F"
C      -47.87430000     -31.25700000     -68.80950000
C      -47.68050000     -31.36710000     -70.17650000
C      -48.04420000     -32.57380000     -70.79280000
C      -48.41730000     -33.69490000     -70.03310000
C      -48.66030000     -33.52980000     -68.66800000
C      -48.31100000     -32.33470000     -68.04970000
H      -47.56650000     -30.33820000     -68.24300000
H      -47.94320000     -32.61670000     -71.87830000
H      -49.03850000     -34.41030000     -68.14510000
H      -48.40990000     -32.15070000     -66.99270000
C      -48.93020000     -34.90400000     -70.65450000
H      -49.51410000     -34.55800000     -71.52430000
H      -49.53160000     -35.51240000     -69.99920000
C      -47.17930000     -30.20260000     -71.02650000
H      -47.23040000     -30.38800000     -72.13500000
H      -47.94800000     -29.42380000     -70.90390000
S      -47.64430000     -35.98250000     -71.53040000
S      -45.63850000     -29.39600000     -70.52680000
C      -46.26360000     -36.05490000     -70.31040000
H      -46.65620000     -36.06660000     -69.30500000
H      -45.68500000     -36.95860000     -70.38600000
C      -44.37960000     -30.36360000     -71.50030000
H      -43.40330000     -29.86600000     -71.18690000
H      -44.60020000     -30.32050000     -72.60020000
C      -44.31300000     -31.83200000     -71.08440000
H      -44.28810000     -31.97180000     -70.02140000
H      -45.16300000     -32.38620000     -71.36730000
C      -45.26880000     -34.81630000     -70.45600000
H      -44.71810000     -34.57770000     -69.46930000
H      -45.85830000     -33.99910000     -70.81330000
C      -44.21310000     -35.08710000     -71.50570000
C      -43.88890000     -36.36260000     -72.01940000
C      -43.40800000     -34.03090000     -72.07170000
H      -44.30460000     -37.29850000     -71.68890000
C      -42.46250000     -34.53290000     -72.98510000
C      -43.24760000     -32.60770000     -71.85290000
C      -42.14230000     -32.13650000     -72.59410000
S      -42.50060000     -36.21640000     -73.20480000
S      -41.44660000     -33.34100000     -73.66800000
H      -41.77980000     -31.10340000     -72.67950000
