40
Properties=species:S:1:pos:R:3 #=T CELL(abcABC):=T 1.889726e+02=T 90.00000=T Traj:=T positionsangstrom=T Step:=T 0=T Bead:=T pbc="F F F"
C      -45.49490000     -36.77370000     -73.34120000
C      -44.39070000     -36.44820000     -72.54270000
C      -43.57490000     -35.35650000     -72.91840000
C      -43.86210000     -34.57930000     -74.03770000
C      -45.00390000     -34.95700000     -74.81560000
C      -45.89180000     -35.93730000     -74.40210000
H      -46.02760000     -37.71560000     -73.15250000
H      -42.68240000     -35.13300000     -72.32420000
H      -45.18670000     -34.48960000     -75.78910000
H      -46.68990000     -36.32650000     -75.09710000
C      -42.91700000     -33.52230000     -74.45720000
H      -42.85710000     -33.49200000     -75.53580000
H      -41.91670000     -33.72240000     -74.03030000
C      -44.14930000     -37.15340000     -71.20710000
H      -43.97920000     -38.16620000     -71.54190000
H      -43.21940000     -36.75260000     -70.77180000
S      -43.44950000     -31.78230000     -73.85320000
S      -45.67240000     -37.24000000     -70.24540000
C      -45.29420000     -31.71480000     -73.87390000
H      -45.52330000     -30.63700000     -74.01610000
H      -45.77190000     -32.36000000     -74.56930000
C      -45.79190000     -35.68840000     -69.26630000
H      -44.90220000     -35.49300000     -68.74940000
H      -46.55290000     -35.94140000     -68.46660000
C      -46.12030000     -34.45830000     -70.11710000
H      -45.39450000     -34.27530000     -70.84290000
H      -47.04720000     -34.67950000     -70.65430000
C      -45.92600000     -32.28400000     -72.54500000
H      -45.21970000     -33.11530000     -72.32700000
H      -46.89710000     -32.74950000     -72.76360000
C      -46.00420000     -31.41030000     -71.29350000
C      -45.77130000     -30.05830000     -71.31740000
C      -46.21580000     -31.94940000     -69.97700000
H      -45.64940000     -29.53290000     -72.25910000
C      -46.25780000     -30.86940000     -69.08940000
C      -46.23410000     -33.20310000     -69.33180000
C      -46.37510000     -33.11120000     -67.98210000
S      -45.89470000     -29.31540000     -69.72200000
S      -46.42340000     -31.41370000     -67.43120000
H      -46.30980000     -33.85630000     -67.12100000
