40
Properties=species:S:1:pos:R:3 #=T CELL(abcABC):=T 1.889726e+02=T 90.00000=T Traj:=T positionsangstrom=T Step:=T 0=T Bead:=T pbc="F F F"
C      -43.79430000     -32.96680000     -69.29320000
C      -43.07660000     -33.97260000     -70.03180000
C      -42.65390000     -33.69210000     -71.32370000
C      -43.00050000     -32.46970000     -71.86960000
C      -43.65240000     -31.50170000     -71.12840000
C      -44.14970000     -31.74100000     -69.83980000
H      -44.12780000     -33.39130000     -68.28120000
H      -42.17430000     -34.44020000     -71.95660000
H      -43.93900000     -30.55470000     -71.56770000
H      -44.62010000     -31.03530000     -69.20900000
C      -42.57400000     -32.21340000     -73.26600000
H      -41.89890000     -33.00280000     -73.59500000
H      -41.96600000     -31.30810000     -73.36530000
C      -42.85610000     -35.29390000     -69.32950000
H      -42.06410000     -35.73890000     -69.93280000
H      -42.74060000     -35.17600000     -68.23230000
S      -44.15460000     -32.28290000     -74.46540000
S      -44.50230000     -36.25310000     -69.44020000
C      -44.80470000     -34.06460000     -74.18310000
H      -44.52410000     -34.79120000     -75.05730000
H      -44.36440000     -34.47290000     -73.26850000
C      -45.24640000     -36.38600000     -71.12980000
H      -45.18070000     -37.42340000     -71.42820000
H      -44.74210000     -35.62230000     -71.77420000
C      -46.73640000     -36.07200000     -70.95560000
H      -47.22040000     -36.48140000     -71.77710000
H      -47.13960000     -36.61380000     -70.13970000
C      -46.35850000     -33.96090000     -74.04200000
H      -46.72490000     -35.00110000     -73.95450000
H      -46.80010000     -33.62630000     -75.01200000
C      -46.80130000     -33.06110000     -72.85660000
C      -47.07010000     -31.74580000     -73.09220000
C      -46.90060000     -33.43990000     -71.49920000
H      -47.07020000     -31.27010000     -74.04490000
C      -47.17130000     -32.32400000     -70.69220000
C      -46.97930000     -34.62600000     -70.64840000
C      -47.13930000     -34.37090000     -69.27580000
S      -47.31880000     -30.81380000     -71.67250000
S      -47.31340000     -32.59530000     -68.97320000
H      -47.06000000     -35.09870000     -68.47680000
