40
Properties=species:S:1:pos:R:3 #=T CELL(abcABC):=T 1.889726e+02=T 90.00000=T Traj:=T positionsangstrom=T Step:=T 0=T Bead:=T pbc="F F F"
C      -45.61530000     -36.72320000     -73.86280000
C      -44.67540000     -36.44000000     -72.84690000
C      -43.91080000     -35.24700000     -73.01500000
C      -44.08190000     -34.40810000     -74.12800000
C      -44.94850000     -34.80430000     -75.12860000
C      -45.77510000     -35.93970000     -74.98300000
H      -46.14350000     -37.55140000     -73.70410000
H      -43.15090000     -34.93500000     -72.32620000
H      -45.26600000     -34.07250000     -75.86560000
H      -46.41050000     -36.24990000     -75.73860000
C      -43.24970000     -33.15300000     -74.22600000
H      -43.11240000     -32.84530000     -75.28950000
H      -42.21290000     -33.30370000     -73.97310000
C      -44.46850000     -37.24970000     -71.55640000
H      -44.03290000     -38.23900000     -71.71960000
H      -43.77950000     -36.75930000     -70.85350000
S      -43.85950000     -31.80650000     -73.19060000
S      -46.14280000     -37.30110000     -70.70660000
C      -45.75010000     -31.51370000     -73.57310000
H      -45.82670000     -30.49350000     -73.76910000
H      -45.80570000     -32.08920000     -74.45930000
C      -45.94040000     -35.81540000     -69.51540000
H      -44.82460000     -35.75120000     -69.29930000
H      -46.57500000     -35.90690000     -68.59690000
C      -46.38020000     -34.50590000     -70.22550000
H      -46.04060000     -34.41640000     -71.23210000
H      -47.48710000     -34.42570000     -70.27460000
C      -46.62900000     -31.93990000     -72.39590000
H      -46.71220000     -33.05400000     -72.33730000
H      -47.73160000     -31.84710000     -72.70250000
C      -46.15080000     -31.24070000     -71.15140000
C      -46.12540000     -29.86870000     -70.99230000
C      -45.90510000     -31.88900000     -69.93370000
H      -46.37820000     -29.07050000     -71.65990000
C      -45.64420000     -30.97840000     -68.88470000
C      -45.85540000     -33.29410000     -69.41380000
C      -45.49700000     -33.37380000     -68.06750000
S      -45.58630000     -29.35600000     -69.39020000
S      -45.18740000     -31.79630000     -67.40710000
H      -45.63730000     -34.24470000     -67.44790000
