40
Properties=species:S:1:pos:R:3 #=T CELL(abcABC):=T 1.889726e+02=T 90.00000=T Traj:=T positionsangstrom=T Step:=T 0=T Bead:=T pbc="F F F"
C      -45.96700000     -30.14530000     -73.42590000
C      -46.89030000     -30.51540000     -72.40790000
C      -47.57580000     -31.74360000     -72.58460000
C      -47.39050000     -32.52510000     -73.73570000
C      -46.53360000     -32.04120000     -74.76550000
C      -45.88040000     -30.84610000     -74.55750000
H      -45.40720000     -29.20130000     -73.34260000
H      -48.28400000     -32.10760000     -71.83450000
H      -46.44410000     -32.67140000     -75.71030000
H      -45.18590000     -30.62840000     -75.33760000
C      -48.12660000     -33.79340000     -73.89590000
H      -48.20310000     -33.93530000     -75.00190000
H      -49.18640000     -33.69780000     -73.51060000
C      -47.04540000     -29.71150000     -71.16400000
H      -46.49060000     -28.76540000     -71.22040000
H      -48.06060000     -29.42540000     -70.92920000
S      -47.51610000     -35.35310000     -73.15590000
S      -46.66970000     -30.61380000     -69.54150000
C      -47.57710000     -35.23350000     -71.32290000
H      -48.57290000     -34.71090000     -71.12720000
H      -47.63470000     -36.21640000     -71.07780000
C      -44.93220000     -31.28350000     -69.92130000
H      -44.12680000     -30.48470000     -70.08730000
H      -45.07430000     -31.82920000     -70.93000000
C      -44.50790000     -32.23280000     -68.78710000
H      -44.07300000     -31.69140000     -67.96010000
H      -45.40780000     -32.84210000     -68.44550000
C      -46.48480000     -34.43610000     -70.54170000
H      -46.77600000     -34.44660000     -69.44060000
H      -46.37220000     -33.43010000     -70.97590000
C      -45.09870000     -35.07670000     -70.53110000
C      -44.82410000     -36.22050000     -71.20040000
C      -43.86040000     -34.47350000     -69.98380000
H      -45.54210000     -36.85130000     -71.72250000
C      -42.72340000     -35.20920000     -70.42850000
C      -43.50430000     -33.29750000     -69.22120000
C      -42.17660000     -33.19920000     -68.91260000
S      -43.08780000     -36.67590000     -71.32010000
S      -41.33400000     -34.70320000     -69.55330000
H      -41.69010000     -32.31410000     -68.69050000
