40
Properties=species:S:1:pos:R:3 #=T CELL(abcABC):=T 1.889726e+02=T 90.00000=T Traj:=T positionsangstrom=T Step:=T 0=T Bead:=T pbc="F F F"
C      -45.87360000     -30.02800000     -73.33010000
C      -46.75070000     -30.51240000     -72.27170000
C      -47.51370000     -31.62940000     -72.55440000
C      -47.16650000     -32.46170000     -73.65040000
C      -46.21250000     -31.97120000     -74.61740000
C      -45.62740000     -30.72090000     -74.45690000
H      -45.38360000     -29.08700000     -73.16300000
H      -48.22860000     -32.06990000     -71.93870000
H      -46.19770000     -32.50230000     -75.60930000
H      -44.98760000     -30.28470000     -75.25270000
C      -48.09570000     -33.61390000     -73.89280000
H      -48.12440000     -33.78440000     -74.97110000
H      -49.06910000     -33.40240000     -73.55890000
C      -46.97020000     -29.77920000     -70.96720000
H      -46.23820000     -28.89090000     -70.94800000
H      -48.05310000     -29.45800000     -70.93680000
S      -47.50180000     -35.20900000     -73.19800000
S      -46.64470000     -30.80060000     -69.53450000
C      -47.77320000     -35.20850000     -71.37490000
H      -48.71430000     -34.64720000     -71.11090000
H      -47.88660000     -36.21150000     -70.96730000
C      -44.95340000     -31.36400000     -69.73550000
H      -44.27900000     -30.59440000     -69.61540000
H      -44.69150000     -31.76910000     -70.69590000
C      -44.58360000     -32.40000000     -68.70050000
H      -44.36320000     -31.81710000     -67.81030000
H      -45.43670000     -32.94670000     -68.33600000
C      -46.61940000     -34.55330000     -70.58430000
H      -46.84070000     -34.71020000     -69.49500000
H      -46.66580000     -33.48010000     -70.62280000
C      -45.13350000     -34.98300000     -70.74320000
C      -44.79450000     -36.07030000     -71.47680000
C      -43.97070000     -34.56530000     -69.96940000
H      -45.52740000     -36.60790000     -72.14200000
C      -42.86550000     -35.30790000     -70.35650000
C      -43.57820000     -33.45670000     -69.12540000
C      -42.26360000     -33.41330000     -68.90220000
S      -43.18680000     -36.67090000     -71.42330000
S      -41.40960000     -34.65490000     -69.72520000
H      -41.75070000     -32.66930000     -68.38230000
