40
Properties=species:S:1:pos:R:3 #=T CELL(abcABC):=T 1.889726e+02=T 90.00000=T Traj:=T positionsangstrom=T Step:=T 0=T Bead:=T pbc="F F F"
C      -45.19660000     -36.67190000     -73.72900000
C      -44.31730000     -36.27080000     -72.76040000
C      -43.51270000     -35.12190000     -73.17460000
C      -43.80450000     -34.39930000     -74.29540000
C      -44.79410000     -34.81100000     -75.20610000
C      -45.43480000     -35.99740000     -74.97770000
H      -45.91090000     -37.52140000     -73.38480000
H      -42.72230000     -34.75390000     -72.45830000
H      -45.01620000     -34.31790000     -76.15280000
H      -46.30690000     -36.30820000     -75.53910000
C      -43.07130000     -33.05310000     -74.41370000
H      -43.32250000     -32.60430000     -75.36640000
H      -42.04880000     -33.17820000     -74.11620000
C      -44.26800000     -36.95430000     -71.42780000
H      -43.85370000     -37.97750000     -71.61660000
H      -43.63220000     -36.39170000     -70.76480000
S      -43.84910000     -31.80510000     -73.26160000
S      -45.83860000     -37.28240000     -70.53160000
C      -45.61920000     -31.68270000     -73.72040000
H      -45.79300000     -30.60740000     -73.92470000
H      -45.90650000     -32.30410000     -74.55400000
C      -45.90070000     -35.86380000     -69.45440000
H      -45.00020000     -35.67590000     -68.82770000
H      -46.64440000     -36.13930000     -68.70900000
C      -46.34400000     -34.62540000     -70.20420000
H      -45.79010000     -34.55300000     -71.08470000
H      -47.44790000     -34.75580000     -70.36780000
C      -46.44760000     -32.13780000     -72.47190000
H      -46.07260000     -33.13090000     -72.35080000
H      -47.51900000     -32.09090000     -72.73740000
C      -46.09980000     -31.34690000     -71.22430000
C      -46.10450000     -29.97930000     -71.06880000
C      -46.13890000     -31.95020000     -69.88280000
H      -46.05690000     -29.21570000     -71.82670000
C      -45.96510000     -31.02750000     -68.86030000
C      -46.12450000     -33.29380000     -69.41230000
C      -46.02120000     -33.36480000     -68.01820000
S      -45.83460000     -29.39240000     -69.44760000
S      -45.86370000     -31.70150000     -67.30440000
H      -45.81540000     -34.22920000     -67.41810000
