40
Properties=species:S:1:pos:R:3 #=T CELL(abcABC):=T 1.889726e+02=T 90.00000=T Traj:=T positionsangstrom=T Step:=T 0=T Bead:=T pbc="F F F"
C      -45.35550000     -30.22240000     -72.93660000
C      -46.47200000     -30.37870000     -72.06260000
C      -47.40110000     -31.38010000     -72.37340000
C      -47.29080000     -32.03080000     -73.59540000
C      -46.21290000     -31.93680000     -74.46060000
C      -45.23080000     -30.95680000     -74.18990000
H      -44.65790000     -29.35080000     -72.71610000
H      -48.30810000     -31.53690000     -71.70870000
H      -46.10900000     -32.55180000     -75.23830000
H      -44.33720000     -30.88360000     -74.84090000
C      -48.17980000     -33.23000000     -73.88600000
H      -48.53750000     -33.29930000     -74.90570000
H      -49.02650000     -33.04470000     -73.30160000
C      -46.57050000     -29.58540000     -70.73480000
H      -45.86210000     -28.71300000     -70.57030000
H      -47.58530000     -29.03280000     -70.84470000
S      -47.34910000     -34.85810000     -73.44640000
S      -46.69120000     -30.57180000     -69.15700000
C      -47.79260000     -35.17000000     -71.64610000
H      -48.73140000     -34.73500000     -71.33970000
H      -47.90180000     -36.25660000     -71.62970000
C      -45.08490000     -31.54850000     -69.45390000
H      -44.31640000     -30.76180000     -69.40180000
H      -45.00230000     -31.93380000     -70.40740000
C      -44.77010000     -32.76080000     -68.56030000
H      -44.41970000     -32.38720000     -67.57750000
H      -45.64260000     -33.37330000     -68.34590000
C      -46.72980000     -34.76120000     -70.64460000
H      -47.05690000     -35.17870000     -69.63680000
H      -46.64830000     -33.66160000     -70.65280000
C      -45.27720000     -35.19890000     -70.92720000
C      -44.93370000     -36.26790000     -71.76950000
C      -44.10710000     -34.66790000     -70.24210000
H      -45.64670000     -36.95630000     -72.13190000
C      -42.99240000     -35.34010000     -70.63500000
C      -43.74630000     -33.65060000     -69.25560000
C      -42.41690000     -33.56820000     -68.99470000
S      -43.26610000     -36.77960000     -71.67830000
S      -41.52930000     -34.84350000     -69.79220000
H      -41.86500000     -32.91580000     -68.23710000
