40
Properties=species:S:1:pos:R:3 #=T CELL(abcABC):=T 1.889726e+02=T 90.00000=T Traj:=T positionsangstrom=T Step:=T 0=T Bead:=T pbc="F F F"
C      -47.97540000     -31.30220000     -68.69920000
C      -47.65150000     -31.44990000     -70.01080000
C      -48.03100000     -32.53330000     -70.76820000
C      -48.72940000     -33.58090000     -70.19560000
C      -48.94940000     -33.52390000     -68.77100000
C      -48.59460000     -32.36000000     -68.03670000
H      -47.53820000     -30.44600000     -68.21980000
H      -47.78120000     -32.57520000     -71.84560000
H      -49.33740000     -34.35720000     -68.22120000
H      -48.69440000     -32.24480000     -66.89670000
C      -48.96390000     -34.85630000     -70.99690000
H      -49.52280000     -34.55650000     -71.84010000
H      -49.45500000     -35.52310000     -70.32660000
C      -47.06740000     -30.25760000     -70.69500000
H      -46.68340000     -30.53610000     -71.70780000
H      -47.75060000     -29.35610000     -70.80030000
S      -47.43300000     -35.56140000     -71.78840000
S      -45.44620000     -29.66520000     -69.87650000
C      -46.29370000     -36.02420000     -70.47280000
H      -46.89200000     -35.99210000     -69.54390000
H      -45.97680000     -37.03210000     -70.62260000
C      -44.15940000     -30.40610000     -71.09450000
H      -43.18770000     -29.84250000     -70.92210000
H      -44.53370000     -30.33260000     -72.12010000
C      -44.12460000     -31.90460000     -70.89880000
H      -43.82170000     -32.09930000     -69.90410000
H      -45.13990000     -32.29090000     -71.06730000
C      -45.09760000     -35.11270000     -70.39330000
H      -44.46100000     -35.47530000     -69.51750000
H      -45.34600000     -34.07530000     -70.13400000
C      -44.18270000     -35.20030000     -71.59220000
C      -43.89180000     -36.38850000     -72.21440000
C      -43.37840000     -34.10480000     -72.15220000
H      -44.43880000     -37.36560000     -72.08760000
C      -42.55480000     -34.51270000     -73.16860000
C      -43.20090000     -32.68050000     -71.80250000
C      -42.24330000     -32.08330000     -72.59070000
S      -42.64950000     -36.25060000     -73.50000000
S      -41.58640000     -33.19910000     -73.80900000
H      -41.90990000     -31.03500000     -72.61380000
