40
Properties=species:S:1:pos:R:3 #=T CELL(abcABC):=T 1.889726e+02=T 90.00000=T Traj:=T positionsangstrom=T Step:=T 0=T Bead:=T pbc="F F F"
C      -44.70990000     -29.62700000     -71.74070000
C      -45.87230000     -29.96230000     -71.04520000
C      -46.96990000     -30.67160000     -71.68240000
C      -46.75520000     -31.01870000     -73.02480000
C      -45.66680000     -30.54900000     -73.75860000
C      -44.68440000     -29.88370000     -73.12010000
H      -43.98140000     -29.08320000     -71.20170000
H      -47.83570000     -30.75960000     -71.10700000
H      -45.63470000     -30.71630000     -74.78840000
H      -43.82100000     -29.67020000     -73.75820000
C      -47.88880000     -31.75190000     -73.73920000
H      -47.95670000     -31.40090000     -74.73400000
H      -48.91250000     -31.59540000     -73.33360000
C      -45.94790000     -29.76980000     -69.57730000
H      -45.05050000     -29.29950000     -69.12480000
H      -46.81180000     -29.19510000     -69.25400000
S      -47.67890000     -33.56930000     -74.05460000
S      -46.23540000     -31.40550000     -68.76800000
C      -47.84550000     -34.23330000     -72.42410000
H      -48.68970000     -33.80390000     -71.88950000
H      -48.04870000     -35.33450000     -72.51410000
C      -44.69850000     -32.40110000     -69.00740000
H      -43.80680000     -32.00750000     -68.53020000
H      -44.49300000     -32.48530000     -70.07830000
C      -44.93050000     -33.80920000     -68.42030000
H      -44.75280000     -33.99750000     -67.30280000
H      -46.01610000     -34.07830000     -68.67500000
C      -46.65850000     -34.14930000     -71.46790000
H      -47.16480000     -34.15890000     -70.47920000
H      -46.31000000     -33.11470000     -71.59600000
C      -45.46990000     -35.04880000     -71.61380000
C      -45.27930000     -35.83420000     -72.71350000
C      -44.44960000     -35.23670000     -70.57820000
H      -45.95660000     -35.69310000     -73.58720000
C      -43.45960000     -36.11480000     -71.05430000
C      -44.11410000     -34.80100000     -69.24200000
C      -42.92010000     -35.31500000     -68.76080000
S      -43.71400000     -36.69260000     -72.70910000
S      -42.16750000     -36.46690000     -69.93570000
H      -42.59860000     -35.30820000     -67.68400000
