40
Properties=species:S:1:pos:R:3 #=T CELL(abcABC):=T 1.889726e+02=T 90.00000=T Traj:=T positionsangstrom=T Step:=T 0=T Bead:=T pbc="F F F"
C      -44.27580000     -29.61110000     -70.86000000
C      -44.75210000     -30.35540000     -69.78180000
C      -43.97750000     -31.44220000     -69.31070000
C      -42.80420000     -31.79050000     -69.95230000
C      -42.32300000     -30.97200000     -70.98740000
C      -43.05670000     -29.94460000     -71.48370000
H      -44.75510000     -28.67280000     -71.23120000
H      -44.34430000     -31.98090000     -68.45480000
H      -41.40870000     -31.10440000     -71.47810000
H      -42.84720000     -29.37140000     -72.38860000
C      -41.90360000     -32.89650000     -69.45270000
H      -42.40180000     -33.48050000     -68.60230000
H      -40.91020000     -32.59470000     -69.08180000
C      -46.03720000     -30.01950000     -69.04980000
H      -45.90850000     -29.52470000     -68.06720000
H      -46.58370000     -29.41320000     -69.76610000
S      -41.50730000     -34.07910000     -70.82940000
S      -47.07870000     -31.48170000     -68.55590000
C      -43.28110000     -34.48390000     -71.62490000
H      -43.57540000     -33.65590000     -72.36700000
H      -43.03550000     -35.34220000     -72.27540000
C      -47.62780000     -32.57820000     -69.99590000
H      -48.63480000     -32.25510000     -70.21440000
H      -47.58090000     -33.51240000     -69.52020000
C      -46.70560000     -32.54210000     -71.14660000
H      -46.58110000     -31.47510000     -71.50500000
H      -45.66490000     -32.74800000     -70.90480000
C      -44.42210000     -35.07790000     -70.76260000
H      -44.80620000     -34.39930000     -69.97990000
H      -43.92810000     -35.85260000     -70.14790000
C      -45.42350000     -35.58620000     -71.72400000
C      -45.22210000     -36.87020000     -72.25790000
C      -46.46800000     -34.82100000     -72.42730000
H      -44.58440000     -37.65300000     -71.81530000
C      -47.04560000     -35.62030000     -73.38030000
C      -47.09280000     -33.54670000     -72.23540000
C      -48.16450000     -33.30700000     -73.04530000
S      -46.29680000     -37.15530000     -73.63780000
S      -48.48390000     -34.81590000     -74.02740000
H      -48.89140000     -32.47580000     -73.08770000
