40
Properties=species:S:1:pos:R:3 #=T CELL(abcABC):=T 1.889726e+02=T 90.00000=T Traj:=T positionsangstrom=T Step:=T 0=T Bead:=T pbc="F F F"
C      -46.31020000     -36.84480000     -74.10580000
C      -45.31690000     -36.77360000     -73.13760000
C      -44.34140000     -35.77430000     -73.26000000
C      -44.48210000     -34.72160000     -74.16060000
C      -45.63370000     -34.70620000     -74.99070000
C      -46.47590000     -35.80850000     -75.04710000
H      -46.97460000     -37.71980000     -74.20780000
H      -43.39850000     -35.78810000     -72.59870000
H      -45.86630000     -33.90680000     -75.74010000
H      -47.24480000     -35.86460000     -75.76770000
C      -43.44790000     -33.53670000     -74.21810000
H      -43.54980000     -33.04720000     -75.16660000
H      -42.42230000     -33.90360000     -74.08030000
C      -45.17680000     -37.68880000     -71.90380000
H      -45.48100000     -38.71360000     -72.10700000
H      -44.07060000     -37.81730000     -71.71960000
S      -43.87880000     -32.44250000     -72.82040000
S      -46.03970000     -37.12810000     -70.40640000
C      -45.40340000     -31.55660000     -73.43390000
H      -45.23820000     -30.45940000     -73.58510000
H      -45.79780000     -31.82160000     -74.36960000
C      -45.11130000     -35.66010000     -69.70730000
H      -44.02040000     -35.66460000     -70.06510000
H      -45.09700000     -35.72160000     -68.64240000
C      -45.81150000     -34.43580000     -70.09750000
H      -45.68670000     -34.31550000     -71.27770000
H      -46.90380000     -34.50700000     -70.10220000
C      -46.58710000     -31.68930000     -72.45760000
H      -46.79530000     -32.80980000     -72.36730000
H      -47.60430000     -31.29910000     -72.79640000
C      -46.18060000     -31.12240000     -71.12020000
C      -46.30220000     -29.76570000     -71.02350000
C      -45.67770000     -31.74770000     -69.88920000
H      -46.61170000     -29.16640000     -71.91900000
C      -45.27980000     -30.76020000     -68.97410000
C      -45.43700000     -33.10620000     -69.37990000
C      -44.86420000     -33.08500000     -68.07470000
S      -45.72290000     -29.12360000     -69.53890000
S      -44.66280000     -31.38160000     -67.44470000
H      -44.63310000     -33.82940000     -67.24380000
