40
Properties=species:S:1:pos:R:3 #=T CELL(abcABC):=T 1.889726e+02=T 90.00000=T Traj:=T positionsangstrom=T Step:=T 0=T Bead:=T pbc="F F F"
C      -46.63200000     -36.57870000     -73.89940000
C      -45.52990000     -36.67500000     -72.98120000
C      -44.53040000     -35.73230000     -73.12970000
C      -44.41180000     -34.81170000     -74.17650000
C      -45.45810000     -34.82000000     -75.17050000
C      -46.57210000     -35.66840000     -74.97650000
H      -47.48630000     -37.18830000     -73.71340000
H      -43.67210000     -35.76680000     -72.44530000
H      -45.30230000     -34.09770000     -76.03990000
H      -47.37150000     -35.77510000     -75.63830000
C      -43.32090000     -33.75140000     -74.21630000
H      -43.36510000     -33.29150000     -75.25420000
H      -42.28740000     -34.13880000     -74.04460000
C      -45.49510000     -37.66520000     -71.81240000
H      -46.08130000     -38.59100000     -72.12350000
H      -44.46190000     -37.99890000     -71.70130000
S      -43.77390000     -32.40700000     -72.98170000
S      -46.08820000     -37.06000000     -70.11140000
C      -45.45290000     -31.70310000     -73.58900000
H      -45.12850000     -30.68080000     -73.78290000
H      -45.91580000     -32.27310000     -74.41250000
C      -45.04330000     -35.59060000     -69.72580000
H      -44.01050000     -35.72400000     -69.98050000
H      -45.03940000     -35.49780000     -68.64680000
C      -45.63410000     -34.27180000     -70.31660000
H      -45.28670000     -34.24220000     -71.32980000
H      -46.61010000     -34.37390000     -70.41010000
C      -46.58780000     -31.81040000     -72.52210000
H      -46.66420000     -32.83680000     -72.45830000
H      -47.41850000     -31.34580000     -72.92210000
C      -46.18920000     -31.12180000     -71.16520000
C      -46.27750000     -29.77460000     -71.05200000
C      -45.63900000     -31.74880000     -69.91640000
H      -46.74000000     -29.06900000     -71.78280000
C      -45.39480000     -30.79690000     -68.89920000
C      -45.22050000     -33.06100000     -69.52260000
C      -44.66830000     -33.06390000     -68.26730000
S      -45.83520000     -29.16720000     -69.43010000
S      -44.52440000     -31.48060000     -67.54180000
H      -44.58980000     -33.86880000     -67.43990000
