40
Properties=species:S:1:pos:R:3 #=T CELL(abcABC):=T 1.889726e+02=T 90.00000=T Traj:=T positionsangstrom=T Step:=T 0=T Bead:=T pbc="F F F"
C      -44.29290000     -29.79650000     -71.26620000
C      -44.82910000     -30.23650000     -70.06580000
C      -44.02070000     -31.13680000     -69.34490000
C      -42.83560000     -31.63690000     -69.84250000
C      -42.30330000     -31.12750000     -71.03460000
C      -42.98630000     -30.12480000     -71.64480000
H      -44.83780000     -28.99410000     -71.77730000
H      -44.32360000     -31.56350000     -68.45380000
H      -41.23050000     -31.41810000     -71.27900000
H      -42.60160000     -29.74480000     -72.60640000
C      -42.09090000     -32.78080000     -69.10590000
H      -42.79370000     -33.25480000     -68.33220000
H      -41.25080000     -32.43890000     -68.58600000
C      -46.17470000     -29.68900000     -69.56390000
H      -46.04270000     -28.89100000     -68.72820000
H      -46.69890000     -29.13940000     -70.35550000
S      -41.55560000     -34.11440000     -70.25930000
S      -47.34950000     -31.00190000     -68.99270000
C      -43.12950000     -34.39440000     -71.35580000
H      -43.49810000     -33.43610000     -71.60130000
H      -42.60400000     -34.78810000     -72.27240000
C      -47.85950000     -31.95650000     -70.49320000
H      -48.41480000     -31.31070000     -71.14300000
H      -48.41080000     -32.76460000     -70.02790000
C      -46.65270000     -32.65750000     -71.18150000
H      -46.11230000     -31.75600000     -71.59450000
H      -45.98170000     -32.97690000     -70.38820000
C      -44.19090000     -35.29330000     -70.73870000
H      -44.78580000     -34.95060000     -69.87150000
H      -43.63970000     -36.16700000     -70.30320000
C      -45.13320000     -35.74830000     -71.82790000
C      -45.08660000     -37.02500000     -72.34500000
C      -46.30460000     -35.01420000     -72.26150000
H      -44.36480000     -37.72570000     -71.95780000
C      -46.94630000     -35.73440000     -73.27410000
C      -47.01000000     -33.74470000     -72.11710000
C      -48.11160000     -33.56080000     -72.93170000
S      -46.38750000     -37.41620000     -73.41250000
S      -48.31570000     -34.97590000     -73.99620000
H      -48.61330000     -32.65200000     -73.08570000
