40
Properties=species:S:1:pos:R:3 #=T CELL(abcABC):=T 1.889726e+02=T 90.00000=T Traj:=T positionsangstrom=T Step:=T 0=T Bead:=T pbc="F F F"
C      -43.69950000     -36.83220000     -72.49800000
C      -44.08290000     -35.76960000     -73.28000000
C      -43.35470000     -34.58330000     -73.36810000
C      -42.17750000     -34.45140000     -72.66660000
C      -41.70970000     -35.63040000     -71.98350000
C      -42.48110000     -36.75050000     -71.83310000
H      -44.21140000     -37.72450000     -72.42940000
H      -43.82580000     -33.80210000     -73.91090000
H      -40.72220000     -35.67290000     -71.48930000
H      -42.12200000     -37.67540000     -71.35900000
C      -41.28850000     -33.21350000     -72.58050000
H      -40.98970000     -32.85360000     -73.55320000
H      -40.31900000     -33.54190000     -72.11470000
C      -45.46110000     -35.77280000     -73.93910000
H      -45.37310000     -35.41270000     -74.92620000
H      -45.85220000     -36.74770000     -73.90960000
S      -42.10210000     -31.79720000     -71.81170000
S      -46.72410000     -34.65950000     -73.10320000
C      -42.75040000     -32.53360000     -70.28710000
H      -42.09800000     -33.38030000     -70.23090000
H      -42.73740000     -31.84580000     -69.50530000
C      -47.26470000     -35.71270000     -71.59570000
H      -46.69450000     -36.61110000     -71.60100000
H      -48.30620000     -35.96700000     -71.85200000
C      -47.13610000     -35.11630000     -70.13420000
H      -47.68100000     -35.68040000     -69.33850000
H      -46.02050000     -35.17040000     -69.83890000
C      -44.26160000     -33.07300000     -70.39080000
H      -44.32600000     -33.61190000     -69.46670000
H      -44.28290000     -33.84740000     -71.07940000
C      -45.40940000     -32.15470000     -70.30880000
C      -45.22310000     -30.79660000     -70.25930000
C      -46.76780000     -32.54500000     -69.96350000
H      -44.30360000     -30.25990000     -70.37420000
C      -47.56060000     -31.39030000     -69.80660000
C      -47.63650000     -33.71100000     -69.96430000
C      -48.96940000     -33.41880000     -69.74880000
S      -46.74110000     -29.90950000     -70.25470000
S      -49.26770000     -31.72010000     -69.46810000
H      -49.76500000     -34.17190000     -69.54270000
