40
Properties=species:S:1:pos:R:3 #=T CELL(abcABC):=T 1.889726e+02=T 90.00000=T Traj:=T positionsangstrom=T Step:=T 0=T Bead:=T pbc="F F F"
C      -44.55890000     -29.85520000     -71.46740000
C      -45.79580000     -30.12460000     -70.90340000
C      -46.89230000     -30.56090000     -71.65290000
C      -46.72710000     -30.83310000     -72.99170000
C      -45.50140000     -30.49240000     -73.62460000
C      -44.42340000     -30.02280000     -72.82280000
H      -43.70360000     -29.38250000     -70.92720000
H      -47.84440000     -30.60240000     -71.11510000
H      -45.40320000     -30.54030000     -74.69310000
H      -43.44530000     -29.76660000     -73.34770000
C      -47.85670000     -31.45720000     -73.83330000
H      -47.91180000     -31.02900000     -74.85620000
H      -48.89500000     -31.35780000     -73.28250000
C      -46.00130000     -29.89590000     -69.33330000
H      -45.23740000     -29.23100000     -68.90290000
H      -46.91260000     -29.36820000     -69.05540000
S      -47.49140000     -33.26400000     -74.17250000
S      -46.17310000     -31.54180000     -68.41600000
C      -47.86650000     -34.11280000     -72.56400000
H      -48.70370000     -33.59080000     -72.09520000
H      -48.13040000     -35.15460000     -72.83850000
C      -44.68080000     -32.51090000     -68.77600000
H      -43.74650000     -32.25180000     -68.22390000
H      -44.52550000     -32.54230000     -69.89250000
C      -45.04750000     -34.02640000     -68.50570000
H      -45.03010000     -34.24310000     -67.43810000
H      -46.11630000     -34.22720000     -68.91880000
C      -46.72690000     -34.08730000     -71.45100000
H      -47.29710000     -34.60780000     -70.63650000
H      -46.55490000     -33.10980000     -71.04660000
C      -45.39600000     -34.86890000     -71.83400000
C      -45.13210000     -35.54820000     -73.01780000
C      -44.42820000     -35.19060000     -70.79230000
H      -45.76680000     -35.46280000     -73.91730000
C      -43.50860000     -36.10370000     -71.21620000
C      -44.20970000     -34.89790000     -69.34070000
C      -43.14140000     -35.56740000     -68.80120000
S      -43.88050000     -36.66400000     -72.86890000
S      -42.40610000     -36.66490000     -70.04780000
H      -42.75850000     -35.47190000     -67.75250000
