40
Properties=species:S:1:pos:R:3 #=T CELL(abcABC):=T 1.889726e+02=T 90.00000=T Traj:=T positionsangstrom=T Step:=T 0=T Bead:=T pbc="F F F"
C      -44.46990000     -29.86900000     -71.38840000
C      -45.77450000     -30.06030000     -70.77730000
C      -46.83680000     -30.58940000     -71.48940000
C      -46.79600000     -30.77720000     -72.91530000
C      -45.45710000     -30.58050000     -73.48140000
C      -44.37700000     -29.98990000     -72.77320000
H      -43.58810000     -29.57670000     -70.81120000
H      -47.76860000     -31.05210000     -71.07860000
H      -45.32180000     -30.78000000     -74.51300000
H      -43.49430000     -29.71600000     -73.31450000
C      -47.90150000     -31.30390000     -73.62280000
H      -48.05970000     -30.90100000     -74.55940000
H      -48.84420000     -31.38120000     -73.07160000
C      -45.81920000     -29.83130000     -69.31040000
H      -44.86510000     -29.45780000     -68.89040000
H      -46.68370000     -29.29760000     -68.89750000
S      -47.47490000     -33.12120000     -74.16260000
S      -46.26140000     -31.43410000     -68.38530000
C      -47.77010000     -34.14850000     -72.63430000
H      -48.65270000     -33.82810000     -72.05590000
H      -48.00890000     -35.18610000     -72.91120000
C      -44.88680000     -32.58770000     -69.00340000
H      -43.96420000     -32.21810000     -68.60780000
H      -44.81880000     -32.36680000     -70.07140000
C      -45.15310000     -34.04890000     -68.50490000
H      -44.86400000     -34.13220000     -67.49930000
H      -46.19540000     -34.33500000     -68.47450000
C      -46.65680000     -34.15100000     -71.57420000
H      -47.10200000     -34.24310000     -70.59790000
H      -46.10440000     -33.17280000     -71.58190000
C      -45.59670000     -35.25330000     -71.71480000
C      -45.38140000     -35.81510000     -72.92770000
C      -44.61300000     -35.46340000     -70.70380000
H      -46.05990000     -35.54660000     -73.75690000
C      -43.55250000     -36.21510000     -71.27860000
C      -44.33140000     -35.06170000     -69.35140000
C      -43.08810000     -35.56410000     -68.99810000
S      -43.80120000     -36.68690000     -72.99500000
S      -42.22890000     -36.44130000     -70.14990000
H      -42.69790000     -35.35070000     -67.99130000
