40
Properties=species:S:1:pos:R:3 #=T CELL(abcABC):=T 1.889726e+02=T 90.00000=T Traj:=T positionsangstrom=T Step:=T 0=T Bead:=T pbc="F F F"
C      -44.63320000     -29.82870000     -71.52440000
C      -45.81300000     -30.12920000     -70.90900000
C      -46.88760000     -30.70120000     -71.67070000
C      -46.74950000     -30.94760000     -73.04480000
C      -45.57090000     -30.51050000     -73.71830000
C      -44.49910000     -30.02480000     -72.92320000
H      -43.64510000     -29.63720000     -71.05470000
H      -47.73560000     -31.00980000     -71.03100000
H      -45.35810000     -30.70640000     -74.78830000
H      -43.47710000     -29.97150000     -73.40290000
C      -47.76930000     -31.56550000     -73.88460000
H      -48.04800000     -31.07920000     -74.83200000
H      -48.64680000     -31.35210000     -73.37270000
C      -46.01590000     -29.92010000     -69.42690000
H      -45.04740000     -29.53840000     -69.06920000
H      -46.81160000     -29.20660000     -69.46240000
S      -47.40420000     -33.35110000     -74.06740000
S      -46.34170000     -31.38980000     -68.38890000
C      -47.72270000     -34.07540000     -72.37680000
H      -48.56760000     -33.51080000     -72.04240000
H      -48.14610000     -35.08470000     -72.46640000
C      -44.85460000     -32.40220000     -68.89750000
H      -43.99400000     -31.97370000     -68.34770000
H      -44.64760000     -32.30520000     -69.93480000
C      -44.95370000     -33.88960000     -68.53210000
H      -44.68590000     -34.12020000     -67.47910000
H      -46.04240000     -34.24690000     -68.59940000
C      -46.58840000     -33.93900000     -71.45730000
H      -46.84320000     -34.05970000     -70.35340000
H      -46.25500000     -32.91440000     -71.55230000
C      -45.42710000     -34.91270000     -71.70040000
C      -45.31770000     -35.58890000     -72.91070000
C      -44.43610000     -35.26240000     -70.69770000
H      -45.98150000     -35.49350000     -73.74170000
C      -43.57210000     -36.18810000     -71.18700000
C      -44.11970000     -34.87070000     -69.31880000
C      -43.09790000     -35.67890000     -68.84190000
S      -43.77310000     -36.50920000     -72.93500000
S      -42.42700000     -36.78420000     -70.06370000
H      -42.61390000     -35.59450000     -67.88790000
