40
Properties=species:S:1:pos:R:3 #=T CELL(abcABC):=T 1.889726e+02=T 90.00000=T Traj:=T positionsangstrom=T Step:=T 0=T Bead:=T pbc="F F F"
C      -47.51700000     -30.03100000     -70.18260000
C      -46.14820000     -30.33790000     -69.92100000
C      -45.31600000     -30.30210000     -71.10920000
C      -45.82960000     -30.16140000     -72.41840000
C      -47.18260000     -29.88470000     -72.55390000
C      -48.02500000     -29.83500000     -71.45530000
H      -48.27560000     -30.04080000     -69.35230000
H      -44.33720000     -30.74950000     -71.09940000
H      -47.62610000     -29.75480000     -73.57830000
H      -49.02560000     -29.53900000     -71.66490000
C      -45.06170000     -30.28790000     -73.69600000
H      -43.95930000     -30.46990000     -73.55570000
H      -45.15080000     -29.39110000     -74.26110000
C      -45.67540000     -30.46120000     -68.50260000
H      -44.56990000     -30.23220000     -68.41360000
H      -46.30820000     -29.74270000     -67.94960000
S      -45.68010000     -31.75580000     -74.78570000
S      -45.84420000     -32.05110000     -67.57580000
C      -45.58010000     -33.21890000     -73.72210000
H      -46.40050000     -33.29330000     -73.03950000
H      -45.59790000     -34.10780000     -74.40560000
C      -45.09640000     -33.33650000     -68.66470000
H      -44.93060000     -34.29420000     -68.15030000
H      -44.19600000     -33.02160000     -69.07180000
C      -46.08140000     -33.78860000     -69.84450000
H      -47.05960000     -34.03090000     -69.34420000
H      -46.18390000     -33.09000000     -70.64840000
C      -44.27930000     -33.29560000     -72.86120000
H      -44.38180000     -32.54110000     -72.10390000
H      -43.43090000     -32.89160000     -73.38820000
C      -43.91170000     -34.73720000     -72.41070000
C      -43.08890000     -35.55080000     -73.19930000
C      -44.64880000     -35.45450000     -71.40650000
H      -42.48340000     -35.23280000     -74.03540000
C      -44.19590000     -36.77800000     -71.33720000
C      -45.64770000     -35.12960000     -70.38620000
C      -45.96380000     -36.27900000     -69.70860000
S      -43.16650000     -37.20010000     -72.65570000
S      -44.98550000     -37.71390000     -70.19110000
H      -46.65940000     -36.19300000     -68.94490000
