40
Properties=species:S:1:pos:R:3 #=T CELL(abcABC):=T 1.889726e+02=T 90.00000=T Traj:=T positionsangstrom=T Step:=T 0=T Bead:=T pbc="F F F"
C      -44.14500000     -30.01510000     -71.03360000
C      -45.34190000     -30.30400000     -70.31150000
C      -46.45870000     -30.94000000     -70.93770000
C      -46.50390000     -30.98800000     -72.35170000
C      -45.37750000     -30.53760000     -73.04540000
C      -44.23530000     -30.04660000     -72.43820000
H      -43.30870000     -29.64890000     -70.49970000
H      -47.38040000     -31.15220000     -70.44440000
H      -45.25080000     -30.81750000     -74.07460000
H      -43.42860000     -29.73010000     -73.07980000
C      -47.73640000     -31.51340000     -73.04840000
H      -48.25260000     -30.78410000     -73.63390000
H      -48.43890000     -31.73540000     -72.22640000
C      -45.39970000     -30.00380000     -68.80430000
H      -44.45540000     -29.66450000     -68.37640000
H      -46.03180000     -29.18400000     -68.70830000
S      -47.38140000     -32.92740000     -74.23860000
S      -45.94940000     -31.46770000     -67.73820000
C      -48.02690000     -34.28460000     -73.13630000
H      -49.05280000     -33.97030000     -72.93440000
H      -48.25070000     -35.12880000     -73.75910000
C      -44.68000000     -32.66320000     -68.35140000
H      -44.16370000     -33.21550000     -67.52480000
H      -43.90830000     -32.09200000     -68.83030000
C      -45.36950000     -33.68500000     -69.21420000
H      -46.00770000     -34.28160000     -68.58090000
H      -45.94940000     -33.21250000     -69.96550000
C      -47.16950000     -34.54100000     -71.86570000
H      -47.70640000     -35.00730000     -71.09490000
H      -46.93570000     -33.45810000     -71.57640000
C      -45.90290000     -35.31850000     -72.10420000
C      -45.71040000     -36.18760000     -73.13830000
C      -44.75680000     -35.29890000     -71.25590000
H      -46.52980000     -36.21490000     -73.88090000
C      -43.68560000     -36.08570000     -71.75100000
C      -44.48170000     -34.63410000     -69.99870000
C      -43.20890000     -34.88750000     -69.61250000
S      -44.20420000     -37.05120000     -73.13780000
S      -42.31000000     -35.95760000     -70.62480000
H      -42.77560000     -34.69750000     -68.60460000
