40
Properties=species:S:1:pos:R:3 #=T CELL(abcABC):=T 1.889726e+02=T 90.00000=T Traj:=T positionsangstrom=T Step:=T 0=T Bead:=T pbc="F F F"
C      -44.80470000     -37.18940000     -72.28590000
C      -45.09480000     -36.01610000     -73.01610000
C      -44.06370000     -35.09000000     -73.07180000
C      -42.82700000     -35.20580000     -72.47440000
C      -42.53790000     -36.43630000     -71.77850000
C      -43.55390000     -37.43810000     -71.70810000
H      -45.58410000     -37.99940000     -72.21210000
H      -44.37430000     -34.15420000     -73.62670000
H      -41.48640000     -36.57020000     -71.35260000
H      -43.42060000     -38.38500000     -71.25380000
C      -41.82580000     -34.02020000     -72.58790000
H      -41.53470000     -33.97250000     -73.63360000
H      -40.85100000     -34.29860000     -72.09650000
C      -46.34230000     -35.93990000     -73.75450000
H      -46.28070000     -35.61820000     -74.81160000
H      -46.81520000     -36.85630000     -73.90740000
S      -42.46870000     -32.34140000     -72.01860000
S      -47.69670000     -34.95700000     -72.94720000
C      -42.36510000     -32.56550000     -70.18490000
H      -41.58680000     -33.37110000     -70.04420000
H      -41.95710000     -31.71710000     -69.71650000
C      -47.57330000     -35.53390000     -71.19480000
H      -47.17200000     -36.49120000     -71.13690000
H      -48.53090000     -35.53910000     -70.68410000
C      -46.54030000     -34.66850000     -70.40280000
H      -46.35440000     -35.20550000     -69.45130000
H      -45.55520000     -34.81400000     -70.94450000
C      -43.73440000     -32.91470000     -69.48330000
H      -43.57910000     -33.04520000     -68.40980000
H      -43.94790000     -33.92360000     -69.83240000
C      -44.69600000     -31.86560000     -69.89980000
C      -44.31480000     -30.50650000     -69.70570000
C      -46.07020000     -32.00480000     -70.24550000
H      -43.40920000     -30.08310000     -69.40810000
C      -46.79220000     -30.77780000     -70.34900000
C      -46.96730000     -33.19150000     -70.32690000
C      -48.28690000     -32.82310000     -70.55190000
S      -45.70170000     -29.41960000     -69.97520000
S      -48.47050000     -31.04810000     -70.39760000
H      -49.24040000     -33.39320000     -70.60690000
