40
Properties=species:S:1:pos:R:3 #=T CELL(abcABC):=T 1.889726e+02=T 90.00000=T Traj:=T positionsangstrom=T Step:=T 0=T Bead:=T pbc="F F F"
C      -45.25080000     -29.46630000     -69.44400000
C      -45.71840000     -30.68010000     -69.03540000
C      -44.83830000     -31.73700000     -68.73910000
C      -43.47130000     -31.48100000     -68.76400000
C      -43.01940000     -30.18140000     -69.19190000
C      -43.90160000     -29.13400000     -69.50090000
H      -46.01610000     -28.75170000     -69.59920000
H      -45.12800000     -32.68390000     -68.42190000
H      -41.97760000     -30.07900000     -69.12540000
H      -43.54420000     -28.22650000     -69.95760000
C      -42.57370000     -32.61020000     -68.54750000
H      -43.19600000     -33.38860000     -67.97470000
H      -41.64760000     -32.32550000     -67.92020000
C      -47.23760000     -31.01760000     -68.87080000
H      -47.33350000     -31.95210000     -68.29820000
H      -47.62140000     -30.29900000     -68.10170000
S      -41.87250000     -33.18110000     -70.15350000
S      -48.27770000     -30.91040000     -70.40980000
C      -43.43710000     -33.64930000     -71.12260000
H      -44.05310000     -32.71580000     -70.99030000
H      -43.20000000     -33.77380000     -72.17750000
C      -47.44980000     -31.80310000     -71.79390000
H      -46.63520000     -31.14810000     -72.15170000
H      -48.16510000     -31.87460000     -72.69580000
C      -46.97550000     -33.28220000     -71.52500000
H      -46.11460000     -33.33860000     -70.89140000
H      -47.67620000     -33.75980000     -70.84780000
C      -44.12420000     -34.93490000     -70.64050000
H      -44.78200000     -34.69010000     -69.76600000
H      -43.33900000     -35.53300000     -70.23240000
C      -44.70650000     -35.65780000     -71.83260000
C      -44.15480000     -36.84970000     -72.21390000
C      -45.89280000     -35.31350000     -72.70420000
H      -43.30220000     -37.35910000     -71.77220000
C      -45.95450000     -36.07470000     -73.84870000
C      -46.78820000     -34.20970000     -72.68100000
C      -47.63520000     -34.26820000     -73.80200000
S      -44.83400000     -37.46900000     -73.73860000
S      -47.24920000     -35.64170000     -74.89540000
H      -48.42040000     -33.55600000     -73.87490000
