40
Properties=species:S:1:pos:R:3 #=T CELL(abcABC):=T 1.889726e+02=T 90.00000=T Traj:=T positionsangstrom=T Step:=T 0=T Bead:=T pbc="F F F"
C      -45.43670000     -29.52440000     -69.29850000
C      -45.78450000     -30.80560000     -68.97320000
C      -44.74430000     -31.76520000     -68.70580000
C      -43.38810000     -31.46950000     -68.81630000
C      -43.07330000     -30.09590000     -69.11210000
C      -44.08790000     -29.16990000     -69.48520000
H      -46.24320000     -28.82710000     -69.57180000
H      -44.99310000     -32.79580000     -68.44170000
H      -41.99550000     -29.86890000     -69.18050000
H      -43.72190000     -28.22600000     -69.74810000
C      -42.39750000     -32.54560000     -68.61570000
H      -42.66830000     -33.33730000     -67.93340000
H      -41.46860000     -32.26930000     -68.20880000
C      -47.26550000     -31.20270000     -68.91170000
H      -47.29270000     -32.24370000     -68.64450000
H      -47.85640000     -30.52070000     -68.25910000
S      -41.86290000     -33.28820000     -70.25450000
S      -48.33340000     -30.94820000     -70.42410000
C      -43.43370000     -33.54540000     -71.07780000
H      -44.01790000     -32.61930000     -70.95790000
H      -43.29990000     -33.63330000     -72.11890000
C      -47.52080000     -31.86110000     -71.85870000
H      -46.65280000     -31.23460000     -72.05910000
H      -48.15210000     -31.75870000     -72.69080000
C      -47.15780000     -33.31890000     -71.48190000
H      -46.29830000     -33.41920000     -70.75090000
H      -48.05850000     -33.70350000     -70.92240000
C      -44.16220000     -34.83600000     -70.63490000
H      -45.13490000     -34.75470000     -70.07600000
H      -43.54490000     -35.48190000     -70.06560000
C      -44.66950000     -35.63210000     -71.85230000
C      -43.90990000     -36.67950000     -72.40240000
C      -45.86240000     -35.28380000     -72.61840000
H      -43.05700000     -37.12040000     -71.94760000
C      -45.97620000     -36.11640000     -73.76940000
C      -46.82260000     -34.22570000     -72.58800000
C      -47.60800000     -34.29240000     -73.76930000
S      -44.67430000     -37.32760000     -73.81600000
S      -47.28030000     -35.63540000     -74.78440000
H      -48.27900000     -33.49870000     -74.03720000
