40
Properties=species:S:1:pos:R:3 #=T CELL(abcABC):=T 1.889726e+02=T 90.00000=T Traj:=T positionsangstrom=T Step:=T 0=T Bead:=T pbc="F F F"
C      -45.55870000     -29.60880000     -69.21630000
C      -45.82460000     -30.96170000     -69.04520000
C      -44.80090000     -31.86780000     -68.85020000
C      -43.46750000     -31.49120000     -68.89120000
C      -43.19280000     -30.13560000     -69.11850000
C      -44.26200000     -29.23080000     -69.38480000
H      -46.41950000     -28.94450000     -69.36080000
H      -45.03250000     -32.96320000     -68.77630000
H      -42.19320000     -29.74460000     -69.31780000
H      -43.91320000     -28.16960000     -69.49510000
C      -42.38210000     -32.51760000     -68.66550000
H      -42.85380000     -33.28290000     -68.02550000
H      -41.48380000     -32.02220000     -68.18970000
C      -47.27220000     -31.34680000     -68.91410000
H      -47.37470000     -32.41590000     -68.74190000
H      -47.80130000     -30.87820000     -68.05510000
S      -41.74360000     -33.17420000     -70.25310000
S      -48.23590000     -30.93570000     -70.46030000
C      -43.25220000     -33.64950000     -71.25490000
H      -43.82160000     -32.71540000     -71.42490000
H      -42.90150000     -34.01330000     -72.25820000
C      -47.40990000     -31.94290000     -71.75310000
H      -46.39310000     -31.52170000     -71.91510000
H      -48.04560000     -32.04460000     -72.63900000
C      -47.23650000     -33.45920000     -71.29480000
H      -46.22940000     -33.49380000     -70.74920000
H      -48.09830000     -33.79460000     -70.75580000
C      -44.06450000     -34.84060000     -70.64950000
H      -44.84150000     -34.40720000     -70.04380000
H      -43.44140000     -35.35530000     -69.91980000
C      -44.70460000     -35.61200000     -71.79670000
C      -43.99690000     -36.65780000     -72.34730000
C      -45.80220000     -35.16430000     -72.63070000
H      -43.05600000     -36.94690000     -71.90630000
C      -45.89690000     -35.91540000     -73.82290000
C      -47.02060000     -34.37860000     -72.42930000
C      -47.86890000     -34.50970000     -73.56910000
S      -44.64370000     -37.10310000     -73.91340000
S      -47.26040000     -35.59640000     -74.78610000
H      -48.83990000     -34.04250000     -73.79880000
