40
Properties=species:S:1:pos:R:3 #=T CELL(abcABC):=T 1.889726e+02=T 90.00000=T Traj:=T positionsangstrom=T Step:=T 0=T Bead:=T pbc="F F F"
C      -44.69620000     -37.42630000     -72.26860000
C      -45.08050000     -36.39830000     -73.11600000
C      -44.23840000     -35.29690000     -73.39540000
C      -43.07260000     -35.13590000     -72.67530000
C      -42.74140000     -36.13850000     -71.79450000
C      -43.45060000     -37.29250000     -71.60830000
H      -45.27040000     -38.33370000     -72.13750000
H      -44.66880000     -34.57250000     -74.00420000
H      -41.91140000     -35.97210000     -71.19910000
H      -43.06160000     -38.12170000     -70.97150000
C      -42.04980000     -34.09520000     -72.85230000
H      -41.89520000     -33.70320000     -73.86870000
H      -41.10250000     -34.36120000     -72.39060000
C      -46.47590000     -36.40540000     -73.77810000
H      -46.44740000     -36.03810000     -74.78420000
H      -46.84760000     -37.43890000     -73.77660000
S      -42.46810000     -32.42120000     -71.93940000
S      -47.76970000     -35.31180000     -73.02270000
C      -42.35710000     -32.83270000     -70.17940000
H      -41.67280000     -33.52780000     -69.86720000
H      -41.97370000     -31.88690000     -69.75250000
C      -47.50860000     -35.40870000     -71.21570000
H      -47.28910000     -36.39840000     -70.90220000
H      -48.48060000     -35.26100000     -70.81840000
C      -46.53330000     -34.44470000     -70.57550000
H      -46.19660000     -34.63740000     -69.45960000
H      -45.61860000     -34.35350000     -71.17340000
C      -43.67170000     -32.93880000     -69.48490000
H      -43.36590000     -32.90720000     -68.44420000
H      -44.10150000     -33.85810000     -69.87260000
C      -44.63670000     -31.74580000     -69.62640000
C      -44.32640000     -30.47110000     -69.34360000
C      -46.00810000     -31.87810000     -70.12810000
H      -43.38630000     -30.09000000     -68.85680000
C      -46.64780000     -30.67870000     -70.08180000
C      -46.95400000     -32.93280000     -70.51800000
C      -48.18400000     -32.54880000     -70.77780000
S      -45.63610000     -29.34090000     -69.66670000
S      -48.35640000     -30.76050000     -70.55190000
H      -48.91210000     -33.21810000     -71.13410000
