40
Properties=species:S:1:pos:R:3 #=T CELL(abcABC):=T 1.889726e+02=T 90.00000=T Traj:=T positionsangstrom=T Step:=T 0=T Bead:=T pbc="F F F"
C      -45.30140000     -29.43660000     -69.02990000
C      -45.96110000     -30.64390000     -68.77340000
C      -45.07780000     -31.74810000     -68.53800000
C      -43.67600000     -31.65280000     -68.61730000
C      -43.09820000     -30.44870000     -69.02990000
C      -43.94560000     -29.33910000     -69.13280000
H      -45.86180000     -28.52680000     -69.16570000
H      -45.59650000     -32.69670000     -68.20370000
H      -42.03980000     -30.40170000     -69.24730000
H      -43.54640000     -28.35200000     -69.18590000
C      -42.84500000     -32.96120000     -68.60010000
H      -43.48930000     -33.85180000     -68.59460000
H      -42.20720000     -32.91510000     -67.74610000
C      -47.46240000     -30.80650000     -68.84370000
H      -47.75370000     -31.65240000     -68.18020000
H      -47.98630000     -29.85190000     -68.52520000
S      -41.81440000     -33.08940000     -70.09400000
S      -48.28670000     -31.08980000     -70.45000000
C      -43.14440000     -33.54970000     -71.29790000
H      -43.98880000     -32.85860000     -71.24090000
H      -42.60600000     -33.46100000     -72.21230000
C      -47.05470000     -32.10420000     -71.36540000
H      -46.02260000     -31.77520000     -71.10380000
H      -47.19420000     -31.86770000     -72.42140000
C      -47.06800000     -33.59770000     -71.12430000
H      -46.26150000     -33.85020000     -70.40900000
H      -47.95050000     -33.92690000     -70.63040000
C      -43.70830000     -34.91970000     -71.08740000
H      -44.36090000     -34.77510000     -70.21960000
H      -42.99150000     -35.57340000     -70.78350000
C      -44.40350000     -35.40700000     -72.36950000
C      -43.71960000     -36.35560000     -73.06590000
C      -45.72380000     -35.09590000     -72.81310000
H      -42.77140000     -36.83430000     -72.92720000
C      -45.96290000     -35.86730000     -73.96030000
C      -46.88210000     -34.47290000     -72.36860000
C      -47.99090000     -34.72610000     -73.19760000
S      -44.61880000     -36.85840000     -74.51930000
S      -47.57220000     -35.81160000     -74.55030000
H      -48.90060000     -34.19090000     -73.18400000
