40
Properties=species:S:1:pos:R:3 #=T CELL(abcABC):=T 1.889726e+02=T 90.00000=T Traj:=T positionsangstrom=T Step:=T 0=T Bead:=T pbc="F F F"
C      -45.49720000     -29.51180000     -69.07110000
C      -45.91380000     -30.84700000     -68.86380000
C      -45.00690000     -31.87230000     -68.68360000
C      -43.63720000     -31.61910000     -68.87340000
C      -43.22370000     -30.30330000     -69.19370000
C      -44.12800000     -29.25380000     -69.23210000
H      -46.25500000     -28.75040000     -69.09760000
H      -45.28740000     -32.91410000     -68.59850000
H      -42.20260000     -30.05380000     -69.42400000
H      -43.77740000     -28.21970000     -69.34400000
C      -42.76780000     -32.78320000     -68.67970000
H      -43.29070000     -33.67310000     -68.28480000
H      -41.99990000     -32.62850000     -67.90840000
C      -47.40490000     -31.06630000     -68.65840000
H      -47.70150000     -31.94060000     -68.08830000
H      -47.80610000     -30.18340000     -68.18610000
S      -41.67870000     -33.11770000     -70.15780000
S      -48.11560000     -31.01890000     -70.38440000
C      -42.96680000     -33.53960000     -71.41570000
H      -43.69120000     -32.76980000     -71.79300000
H      -42.38720000     -33.87410000     -72.30100000
C      -47.12800000     -32.06370000     -71.48960000
H      -46.07110000     -31.80350000     -71.57620000
H      -47.61340000     -31.81450000     -72.44160000
C      -47.19040000     -33.58160000     -71.14680000
H      -46.49370000     -33.66590000     -70.32640000
H      -48.22630000     -33.86560000     -70.71680000
C      -43.82150000     -34.70980000     -70.98370000
H      -44.55710000     -34.29800000     -70.27840000
H      -43.35930000     -35.55940000     -70.47160000
C      -44.42730000     -35.43340000     -72.22280000
C      -43.72040000     -36.38940000     -72.89190000
C      -45.86290000     -35.29910000     -72.69790000
H      -42.78030000     -36.82670000     -72.51270000
C      -46.05650000     -36.06070000     -73.83960000
C      -46.98500000     -34.46420000     -72.35680000
C      -47.99570000     -34.64930000     -73.30710000
S      -44.62900000     -36.97580000     -74.28710000
S      -47.57360000     -35.63070000     -74.61770000
H      -48.96920000     -34.14890000     -73.25790000
