40
Properties=species:S:1:pos:R:3 #=T CELL(abcABC):=T 1.889726e+02=T 90.00000=T Traj:=T positionsangstrom=T Step:=T 0=T Bead:=T pbc="F F F"
C      -45.00620000     -31.59710000     -69.78530000
C      -46.38400000     -31.97740000     -69.79890000
C      -47.15340000     -32.04100000     -70.93510000
C      -46.65940000     -31.39480000     -72.10000000
C      -45.38100000     -30.80550000     -72.06510000
C      -44.57050000     -30.95010000     -70.93200000
H      -44.39160000     -31.61420000     -68.91570000
H      -48.16700000     -32.48170000     -71.02120000
H      -45.14260000     -30.27560000     -72.99310000
H      -43.57170000     -30.58960000     -71.05810000
C      -47.32890000     -31.62190000     -73.45330000
H      -47.69600000     -30.59840000     -73.89270000
H      -48.10440000     -32.41010000     -73.50270000
C      -46.88560000     -32.55490000     -68.47870000
H      -46.03840000     -32.74890000     -67.89110000
H      -47.63750000     -31.80900000     -68.08670000
S      -46.15700000     -32.16060000     -74.77770000
S      -47.97880000     -34.04220000     -68.62140000
C      -46.39300000     -34.00090000     -74.73660000
H      -47.44670000     -34.10770000     -75.08010000
H      -45.75870000     -34.56040000     -75.42190000
C      -47.00310000     -35.53480000     -68.72760000
H      -47.70210000     -36.37350000     -68.50960000
H      -46.30160000     -35.57590000     -67.90670000
C      -46.27850000     -35.68260000     -70.07020000
H      -46.23310000     -36.74810000     -70.29860000
H      -46.92220000     -35.31670000     -70.89720000
C      -46.15290000     -34.76900000     -73.36710000
H      -46.38270000     -35.82290000     -73.46500000
H      -46.88970000     -34.42540000     -72.62660000
C      -44.74120000     -34.53320000     -72.81170000
C      -43.73060000     -33.95100000     -73.54270000
C      -44.34970000     -34.52550000     -71.38080000
H      -43.87330000     -33.49760000     -74.55970000
C      -43.01700000     -34.06510000     -71.17580000
C      -44.93900000     -34.97440000     -70.09770000
C      -44.00260000     -34.93660000     -69.03160000
S      -42.39110000     -33.42400000     -72.59660000
S      -42.49780000     -34.15990000     -69.50860000
H      -44.38010000     -35.01400000     -68.06170000
