40
Properties=species:S:1:pos:R:3 #=T CELL(abcABC):=T 1.889726e+02=T 90.00000=T Traj:=T positionsangstrom=T Step:=T 0=T Bead:=T pbc="F F F"
C      -45.00530000     -31.30630000     -69.81100000
C      -46.26030000     -31.98800000     -69.84340000
C      -47.11080000     -31.98340000     -70.99090000
C      -46.56660000     -31.44800000     -72.18660000
C      -45.27050000     -30.87220000     -72.21680000
C      -44.51640000     -30.72330000     -71.00700000
H      -44.37680000     -31.40990000     -68.95510000
H      -48.08980000     -32.49040000     -71.10270000
H      -44.98940000     -30.40680000     -73.13490000
H      -43.47450000     -30.35680000     -71.14100000
C      -47.35050000     -31.45850000     -73.46080000
H      -47.67070000     -30.48700000     -73.76080000
H      -48.18520000     -32.10070000     -73.20660000
C      -46.84110000     -32.56870000     -68.54470000
H      -46.02070000     -33.02630000     -67.98150000
H      -46.99530000     -31.79390000     -67.79290000
S      -46.31800000     -32.27630000     -74.79450000
S      -48.21870000     -33.88870000     -68.55180000
C      -46.47440000     -34.13880000     -74.52530000
H      -47.54500000     -34.35920000     -74.60830000
H      -45.95530000     -34.45030000     -75.44650000
C      -47.13670000     -35.41580000     -68.66390000
H      -47.95810000     -36.19740000     -68.65000000
H      -46.54650000     -35.55530000     -67.80310000
C      -46.32920000     -35.59920000     -69.92190000
H      -46.08230000     -36.66120000     -70.04990000
H      -47.06740000     -35.34870000     -70.72180000
C      -46.04700000     -34.66390000     -73.18120000
H      -46.21760000     -35.77590000     -73.12240000
H      -46.72740000     -34.27480000     -72.42440000
C      -44.68380000     -34.40880000     -72.74330000
C      -43.72590000     -33.88610000     -73.53930000
C      -44.34350000     -34.56140000     -71.41240000
H      -43.82930000     -33.69830000     -74.61510000
C      -42.99010000     -34.18470000     -71.18760000
C      -45.00820000     -34.77720000     -70.14320000
C      -44.06670000     -34.84550000     -69.09350000
S      -42.15250000     -33.74670000     -72.68540000
S      -42.44650000     -34.29810000     -69.52880000
H      -44.35580000     -35.05660000     -68.09400000
