40
Properties=species:S:1:pos:R:3 #=T CELL(abcABC):=T 1.889726e+02=T 90.00000=T Traj:=T positionsangstrom=T Step:=T 0=T Bead:=T pbc="F F F"
C      -48.02260000     -31.56090000     -68.44590000
C      -47.47720000     -31.24150000     -69.69790000
C      -47.69550000     -32.08730000     -70.77610000
C      -48.50150000     -33.21930000     -70.67720000
C      -49.01530000     -33.60340000     -69.40140000
C      -48.75020000     -32.70940000     -68.36200000
H      -48.02810000     -30.99430000     -67.52690000
H      -47.26130000     -31.75730000     -71.70060000
H      -49.72390000     -34.41680000     -69.19460000
H      -49.09810000     -32.85540000     -67.30860000
C      -48.73120000     -34.22470000     -71.83640000
H      -49.05800000     -33.80440000     -72.77870000
H      -49.49400000     -34.90930000     -71.44050000
C      -46.67360000     -29.97750000     -69.93270000
H      -46.51500000     -29.73870000     -71.05230000
H      -47.26970000     -29.15100000     -69.52340000
S      -47.19370000     -35.22000000     -72.28120000
S      -44.99180000     -30.02380000     -69.03120000
C      -46.52100000     -35.87200000     -70.64330000
H      -47.17020000     -35.43490000     -69.89150000
H      -46.53740000     -36.97210000     -70.68310000
C      -44.01320000     -30.74970000     -70.47550000
H      -43.05460000     -30.27210000     -70.40360000
H      -44.42920000     -30.39650000     -71.45430000
C      -44.10180000     -32.25320000     -70.53450000
H      -43.70320000     -32.76540000     -69.65050000
H      -45.14010000     -32.48250000     -70.50840000
C      -45.03860000     -35.30640000     -70.27660000
H      -44.70480000     -36.01930000     -69.49000000
H      -45.19060000     -34.34090000     -69.86430000
C      -44.17120000     -35.33220000     -71.51310000
C      -44.01510000     -36.49830000     -72.29340000
C      -43.48070000     -34.21600000     -72.11000000
H      -44.27570000     -37.49040000     -71.94240000
C      -42.74690000     -34.56360000     -73.21960000
C      -43.45960000     -32.80560000     -71.78550000
C      -42.71150000     -32.07850000     -72.73140000
S      -42.94340000     -36.22710000     -73.68600000
S      -41.95900000     -33.20650000     -73.95800000
H      -42.23410000     -31.08450000     -72.63180000
