40
Properties=species:S:1:pos:R:3 #=T CELL(abcABC):=T 1.889726e+02=T 90.00000=T Traj:=T positionsangstrom=T Step:=T 0=T Bead:=T pbc="F F F"
C      -45.11600000     -31.43460000     -69.38310000
C      -46.28650000     -32.24890000     -69.57180000
C      -46.88520000     -32.19030000     -70.83810000
C      -46.27550000     -31.63180000     -71.96240000
C      -45.11590000     -30.89610000     -71.82540000
C      -44.57450000     -30.76100000     -70.52000000
H      -44.68840000     -31.33330000     -68.39080000
H      -47.84190000     -32.78290000     -70.89670000
H      -44.68860000     -30.38660000     -72.63520000
H      -43.70820000     -30.13520000     -70.41180000
C      -47.15340000     -31.59300000     -73.21920000
H      -47.32040000     -30.51200000     -73.39570000
H      -48.02760000     -32.14760000     -72.90180000
C      -46.99160000     -32.80780000     -68.38060000
H      -46.27880000     -33.07590000     -67.62570000
H      -47.75080000     -32.04760000     -67.89890000
S      -46.60540000     -32.24410000     -74.90050000
S      -48.09340000     -34.30140000     -68.75570000
C      -46.54090000     -34.05220000     -74.71840000
H      -47.49910000     -34.53350000     -74.86590000
H      -45.89890000     -34.46180000     -75.48350000
C      -46.96190000     -35.78900000     -68.97980000
H      -47.70480000     -36.61810000     -69.00250000
H      -46.35130000     -35.87480000     -68.12110000
C      -46.15280000     -35.69240000     -70.25670000
H      -45.88360000     -36.74630000     -70.54070000
H      -46.96400000     -35.37040000     -70.97930000
C      -46.03610000     -34.71910000     -73.38870000
H      -45.91140000     -35.76460000     -73.63250000
H      -46.85040000     -34.66940000     -72.65850000
C      -44.73710000     -34.19900000     -72.85320000
C      -43.77290000     -33.52560000     -73.59680000
C      -44.34920000     -34.34560000     -71.45600000
H      -43.76730000     -33.67190000     -74.71680000
C      -43.04110000     -33.85020000     -71.22210000
C      -44.90130000     -34.87190000     -70.25670000
C      -44.01750000     -34.85980000     -69.17530000
S      -42.35220000     -33.15530000     -72.59740000
S      -42.41910000     -34.20190000     -69.63720000
H      -44.05450000     -35.48010000     -68.29160000
