40
Properties=species:S:1:pos:R:3 #=T CELL(abcABC):=T 1.889726e+02=T 90.00000=T Traj:=T positionsangstrom=T Step:=T 0=T Bead:=T pbc="F F F"
C      -48.25110000     -34.14910000     -69.03040000
C      -47.36820000     -35.26820000     -69.04080000
C      -45.99250000     -35.06580000     -68.73530000
C      -45.56540000     -33.87300000     -68.15110000
C      -46.50400000     -32.86760000     -67.92740000
C      -47.83660000     -32.98290000     -68.37810000
H      -49.29450000     -34.16840000     -69.45310000
H      -45.36700000     -35.95760000     -68.80950000
H      -46.14160000     -31.90040000     -67.52480000
H      -48.46150000     -32.09020000     -68.35760000
C      -44.12360000     -33.85070000     -67.67960000
H      -43.99520000     -34.75380000     -67.12840000
H      -43.86160000     -32.98290000     -67.00500000
C      -47.78710000     -36.56210000     -69.66670000
H      -47.37220000     -37.43940000     -69.08300000
H      -48.86070000     -36.51890000     -69.54320000
S      -42.97400000     -33.89270000     -69.08960000
S      -47.13400000     -36.71990000     -71.42970000
C      -43.21280000     -32.18240000     -69.80280000
H      -43.06900000     -31.36200000     -69.10070000
H      -42.44440000     -32.16110000     -70.57450000
C      -46.70880000     -35.01770000     -72.03410000
H      -46.95020000     -34.31120000     -71.27110000
H      -47.31990000     -34.81170000     -72.85670000
C      -45.23640000     -34.94460000     -72.45140000
H      -44.50720000     -34.94920000     -71.56740000
H      -45.01870000     -35.86910000     -73.01160000
C      -44.63190000     -32.08250000     -70.42650000
H      -45.19280000     -31.46560000     -69.76440000
H      -45.02670000     -33.08100000     -70.45270000
C      -44.53850000     -31.49000000     -71.83520000
C      -44.16680000     -30.22150000     -72.13220000
C      -44.68710000     -32.32960000     -73.01480000
H      -44.01040000     -29.47070000     -71.35650000
C      -44.42280000     -31.57290000     -74.14080000
C      -45.02530000     -33.71490000     -73.35310000
C      -45.13110000     -33.87020000     -74.71680000
S      -43.96980000     -29.88450000     -73.82370000
S      -44.82020000     -32.36100000     -75.59050000
H      -45.32170000     -34.83590000     -75.26180000
