40
Properties=species:S:1:pos:R:3 #=T CELL(abcABC):=T 1.889726e+02=T 90.00000=T Traj:=T positionsangstrom=T Step:=T 0=T Bead:=T pbc="F F F"
C      -45.64180000     -31.44490000     -69.16360000
C      -46.54150000     -32.51050000     -69.37510000
C      -47.21870000     -32.48330000     -70.62700000
C      -46.74580000     -31.69070000     -71.69320000
C      -45.67180000     -30.85320000     -71.49230000
C      -45.23260000     -30.64950000     -70.20070000
H      -45.15120000     -31.36050000     -68.17420000
H      -48.06070000     -33.23000000     -70.81390000
H      -45.18450000     -30.28630000     -72.29730000
H      -44.27170000     -30.03050000     -70.01460000
C      -47.60450000     -31.61250000     -72.96050000
H      -48.10970000     -30.61570000     -73.04610000
H      -48.35450000     -32.37360000     -72.90760000
C      -46.93880000     -33.35090000     -68.19110000
H      -46.01350000     -33.51570000     -67.58160000
H      -47.48340000     -32.68820000     -67.44830000
S      -46.56750000     -31.77720000     -74.50600000
S      -47.83140000     -34.97640000     -68.45410000
C      -46.45460000     -33.59340000     -74.91780000
H      -47.41520000     -34.08820000     -74.99250000
H      -45.83020000     -33.64670000     -75.83160000
C      -46.57880000     -36.16990000     -69.23160000
H      -47.14830000     -37.08730000     -69.39910000
H      -45.86910000     -36.34430000     -68.41240000
C      -46.04480000     -35.80890000     -70.67120000
H      -45.88070000     -36.81590000     -71.08320000
H      -46.83600000     -35.24640000     -71.19440000
C      -45.77720000     -34.44710000     -73.82020000
H      -45.60650000     -35.42920000     -74.25840000
H      -46.51960000     -34.68580000     -72.99890000
C      -44.52860000     -33.94750000     -73.11210000
C      -43.70610000     -32.96700000     -73.64140000
C      -44.10110000     -34.41370000     -71.82500000
H      -43.90380000     -32.56410000     -74.60020000
C      -42.86830000     -33.86680000     -71.44870000
C      -44.70680000     -35.12720000     -70.70060000
C      -43.81170000     -35.11900000     -69.58830000
S      -42.27840000     -32.67710000     -72.64760000
S      -42.30890000     -34.24850000     -69.84670000
H      -43.88360000     -35.70670000     -68.69540000
