40
Properties=species:S:1:pos:R:3 #=T CELL(abcABC):=T 1.889726e+02=T 90.00000=T Traj:=T positionsangstrom=T Step:=T 0=T Bead:=T pbc="F F F"
C      -47.97550000     -31.72890000     -68.32820000
C      -47.42050000     -31.24700000     -69.54910000
C      -47.67730000     -31.99810000     -70.70090000
C      -48.38090000     -33.22390000     -70.63340000
C      -49.00950000     -33.60040000     -69.44050000
C      -48.80380000     -32.84120000     -68.26710000
H      -47.85830000     -31.22330000     -67.33870000
H      -47.21480000     -31.64770000     -71.61440000
H      -49.66950000     -34.46160000     -69.38710000
H      -49.20990000     -33.19490000     -67.35540000
C      -48.63170000     -34.14840000     -71.84900000
H      -48.78880000     -33.50380000     -72.73920000
H      -49.49330000     -34.87450000     -71.65640000
C      -46.71810000     -29.90320000     -69.59960000
H      -46.50950000     -29.64560000     -70.60780000
H      -47.17740000     -29.15430000     -68.97560000
S      -47.11420000     -35.10310000     -72.32920000
S      -44.94240000     -30.06310000     -69.04640000
C      -46.64620000     -35.98410000     -70.81590000
H      -47.36430000     -35.86300000     -70.01560000
H      -46.67830000     -37.08930000     -71.00160000
C      -44.05610000     -30.62220000     -70.52370000
H      -43.02360000     -30.59840000     -70.21530000
H      -44.17300000     -30.11260000     -71.49480000
C      -44.33080000     -32.09770000     -70.81720000
H      -44.24770000     -32.71020000     -69.89740000
H      -45.31620000     -32.04160000     -71.27450000
C      -45.26020000     -35.46210000     -70.36480000
H      -44.79010000     -36.10840000     -69.68290000
H      -45.29120000     -34.54070000     -69.75220000
C      -44.30320000     -35.40490000     -71.59450000
C      -44.11670000     -36.50410000     -72.44640000
C      -43.62560000     -34.22410000     -72.13330000
H      -44.46570000     -37.58000000     -72.21910000
C      -42.78890000     -34.52190000     -73.17690000
C      -43.43640000     -32.79360000     -71.80240000
C      -42.52660000     -32.18540000     -72.63260000
S      -42.94700000     -36.21380000     -73.73210000
S      -41.84540000     -33.20750000     -73.83360000
H      -42.29160000     -31.11360000     -72.74180000
