40
Properties=species:S:1:pos:R:3 #=T CELL(abcABC):=T 1.889726e+02=T 90.00000=T Traj:=T positionsangstrom=T Step:=T 0=T Bead:=T pbc="F F F"
C      -45.26080000     -31.93440000     -69.31150000
C      -46.56030000     -32.53320000     -69.39100000
C      -47.35580000     -32.32020000     -70.51570000
C      -46.90010000     -31.55220000     -71.62860000
C      -45.70150000     -30.87830000     -71.48600000
C      -44.80360000     -31.07750000     -70.36510000
H      -44.69360000     -32.10180000     -68.39200000
H      -48.27690000     -32.94370000     -70.54730000
H      -45.40260000     -30.20380000     -72.30040000
H      -43.90020000     -30.61290000     -70.30110000
C      -47.72770000     -31.48000000     -72.87450000
H      -48.20340000     -30.51560000     -72.95080000
H      -48.42510000     -32.31110000     -72.85240000
C      -47.06980000     -33.46390000     -68.27950000
H      -46.26140000     -33.93130000     -67.66670000
H      -47.78240000     -32.94700000     -67.60430000
S      -46.82300000     -31.72750000     -74.43740000
S      -47.89740000     -35.02750000     -68.94820000
C      -46.55860000     -33.54850000     -74.50620000
H      -47.48620000     -34.04700000     -74.58040000
H      -45.88280000     -33.67360000     -75.39200000
C      -46.52670000     -36.17590000     -69.33980000
H      -46.98230000     -37.16410000     -69.33000000
H      -45.79070000     -36.26970000     -68.48340000
C      -45.74950000     -36.06030000     -70.67700000
H      -45.39550000     -37.10110000     -70.73830000
H      -46.38720000     -35.79120000     -71.43710000
C      -45.95930000     -34.24380000     -73.30750000
H      -46.19780000     -35.25830000     -73.48620000
H      -46.41300000     -34.00460000     -72.36280000
C      -44.50880000     -33.93120000     -73.04500000
C      -43.64180000     -33.09740000     -73.73130000
C      -44.01730000     -34.27820000     -71.68830000
H      -43.55630000     -32.90650000     -74.85860000
C      -42.82680000     -33.70310000     -71.37630000
C      -44.60680000     -35.02130000     -70.58030000
C      -43.78160000     -34.93690000     -69.50960000
S      -42.11820000     -32.93910000     -72.80240000
S      -42.39830000     -33.87310000     -69.71860000
H      -43.85730000     -35.35010000     -68.56050000
