40
Properties=species:S:1:pos:R:3 #=T CELL(abcABC):=T 1.889726e+02=T 90.00000=T Traj:=T positionsangstrom=T Step:=T 0=T Bead:=T pbc="F F F"
C      -45.38730000     -31.76040000     -69.21340000
C      -46.50370000     -32.64930000     -69.37290000
C      -47.18580000     -32.62200000     -70.60660000
C      -46.83040000     -31.74590000     -71.65680000
C      -45.85180000     -30.74040000     -71.36000000
C      -45.17210000     -30.75310000     -70.15750000
H      -44.94510000     -31.51900000     -68.20520000
H      -48.03900000     -33.24220000     -70.71860000
H      -45.66250000     -29.93910000     -72.08170000
H      -44.51130000     -29.92720000     -69.81200000
C      -47.59780000     -31.75560000     -73.00760000
H      -48.24160000     -30.88670000     -73.07980000
H      -48.16220000     -32.71640000     -73.08120000
C      -46.91010000     -33.49180000     -68.24470000
H      -46.03790000     -33.72160000     -67.60980000
H      -47.69030000     -32.99090000     -67.71550000
S      -46.57010000     -31.65810000     -74.53800000
S      -47.82770000     -35.04370000     -68.59580000
C      -46.36340000     -33.51890000     -74.92600000
H      -47.34600000     -33.76980000     -75.38540000
H      -45.57540000     -33.62140000     -75.66740000
C      -46.57280000     -36.22210000     -69.22440000
H      -47.07500000     -37.18830000     -69.34180000
H      -45.83890000     -36.38920000     -68.43100000
C      -46.00840000     -35.74070000     -70.54820000
H      -45.75450000     -36.59720000     -71.18430000
H      -46.88720000     -35.25630000     -71.10290000
C      -45.98970000     -34.26840000     -73.68040000
H      -45.88000000     -35.32840000     -73.95220000
H      -46.72700000     -34.15180000     -72.88000000
C      -44.62200000     -33.84200000     -73.06290000
C      -43.64960000     -33.12920000     -73.75560000
C      -44.23130000     -34.09230000     -71.62150000
H      -43.89290000     -32.63700000     -74.64500000
C      -42.91530000     -33.64460000     -71.36560000
C      -44.74280000     -34.90920000     -70.57820000
C      -43.73070000     -35.14890000     -69.63280000
S      -42.23860000     -32.80280000     -72.73230000
S      -42.29780000     -34.18510000     -69.83480000
H      -43.81850000     -35.75080000     -68.70390000
