40
Properties=species:S:1:pos:R:3 #=T CELL(abcABC):=T 1.889726e+02=T 90.00000=T Traj:=T positionsangstrom=T Step:=T 0=T Bead:=T pbc="F F F"
C      -48.02400000     -34.58690000     -69.41370000
C      -48.32250000     -34.87700000     -70.73230000
C      -48.68690000     -33.75290000     -71.54360000
C      -48.55600000     -32.45570000     -71.10590000
C      -48.31280000     -32.17360000     -69.72840000
C      -48.04120000     -33.26770000     -68.88920000
H      -47.72780000     -35.35290000     -68.65010000
H      -48.98240000     -33.89850000     -72.56430000
H      -48.31270000     -31.13680000     -69.27020000
H      -47.75800000     -33.22180000     -67.83500000
C      -48.69020000     -31.29710000     -72.12190000
H      -49.43010000     -30.56540000     -71.81950000
H      -49.15980000     -31.46330000     -73.08050000
C      -48.38610000     -36.24730000     -71.31530000
H      -48.34660000     -37.05730000     -70.59630000
H      -49.42410000     -36.31930000     -71.73340000
S      -47.13490000     -30.34530000     -72.45970000
S      -47.17560000     -36.49340000     -72.75530000
C      -45.69390000     -31.12380000     -71.60450000
H      -45.28470000     -30.51730000     -70.79400000
H      -45.99960000     -32.10540000     -71.15330000
C      -45.41510000     -36.23300000     -72.17120000
H      -44.76790000     -36.86570000     -72.71540000
H      -45.53520000     -36.56780000     -71.16820000
C      -44.95310000     -34.68210000     -72.31660000
H      -44.87190000     -34.61830000     -73.42380000
H      -45.66090000     -33.99200000     -71.92040000
C      -44.62280000     -31.42600000     -72.58900000
H      -44.29800000     -30.53800000     -73.19310000
H      -44.85160000     -32.23890000     -73.19920000
C      -43.36250000     -31.83020000     -71.83840000
C      -42.38490000     -30.90770000     -71.48330000
C      -43.07520000     -33.16680000     -71.40400000
H      -42.45850000     -29.85850000     -71.68070000
C      -41.95360000     -33.18650000     -70.64370000
C      -43.67880000     -34.46650000     -71.53110000
C      -42.99170000     -35.48110000     -70.89350000
S      -41.10790000     -31.68790000     -70.58810000
S      -41.56550000     -34.83010000     -70.07920000
H      -43.03330000     -36.48410000     -71.24790000
