40
Properties=species:S:1:pos:R:3 #=T CELL(abcABC):=T 1.889726e+02=T 90.00000=T Traj:=T positionsangstrom=T Step:=T 0=T Bead:=T pbc="F F F"
C      -45.46210000     -31.58400000     -69.28320000
C      -46.54060000     -32.41710000     -69.28500000
C      -47.29430000     -32.41430000     -70.50990000
C      -46.98920000     -31.60080000     -71.60870000
C      -45.91170000     -30.70890000     -71.51210000
C      -45.14610000     -30.68710000     -70.36750000
H      -44.77450000     -31.57390000     -68.45710000
H      -48.14600000     -33.16820000     -70.66190000
H      -45.60270000     -30.03790000     -72.33020000
H      -44.28550000     -29.99240000     -70.25900000
C      -47.69200000     -31.88210000     -72.90680000
H      -48.52700000     -31.15590000     -73.08950000
H      -48.30600000     -32.81630000     -72.88950000
C      -46.89620000     -33.31090000     -68.15270000
H      -46.08600000     -33.66240000     -67.58590000
H      -47.56600000     -32.86290000     -67.43060000
S      -46.56280000     -31.80400000     -74.41210000
S      -47.84010000     -34.79200000     -68.63540000
C      -46.22310000     -33.50090000     -74.88650000
H      -47.04850000     -33.85300000     -75.48490000
H      -45.52530000     -33.42890000     -75.72030000
C      -46.57920000     -36.01940000     -69.21180000
H      -47.01370000     -37.01350000     -69.04040000
H      -45.76760000     -35.90930000     -68.53460000
C      -45.96380000     -35.85420000     -70.70140000
H      -45.86300000     -36.84110000     -71.21120000
H      -46.62170000     -35.35640000     -71.32390000
C      -45.88550000     -34.43990000     -73.76090000
H      -45.87290000     -35.49750000     -74.18710000
H      -46.74260000     -34.50720000     -73.11850000
C      -44.55300000     -34.03610000     -73.07610000
C      -43.65290000     -33.16730000     -73.67300000
C      -44.12040000     -34.36110000     -71.74990000
H      -43.64160000     -32.81730000     -74.72210000
C      -42.95070000     -33.71800000     -71.35540000
C      -44.64760000     -35.19420000     -70.65000000
C      -43.76150000     -35.22120000     -69.55350000
S      -42.28330000     -32.77190000     -72.67800000
S      -42.27050000     -34.27410000     -69.85670000
H      -43.91770000     -35.67800000     -68.59630000
