40
Properties=species:S:1:pos:R:3 #=T CELL(abcABC):=T 1.889726e+02=T 90.00000=T Traj:=T positionsangstrom=T Step:=T 0=T Bead:=T pbc="F F F"
C      -45.39340000     -31.77880000     -69.28830000
C      -46.53320000     -32.59240000     -69.47260000
C      -47.28270000     -32.53350000     -70.64280000
C      -46.89830000     -31.68660000     -71.63460000
C      -45.74310000     -30.87880000     -71.52340000
C      -45.00950000     -30.96830000     -70.35710000
H      -44.70610000     -32.04030000     -68.48880000
H      -48.16570000     -33.06250000     -70.75030000
H      -45.42560000     -30.35400000     -72.39630000
H      -44.11060000     -30.50030000     -70.19660000
C      -47.76080000     -31.51600000     -72.87310000
H      -48.20400000     -30.54660000     -72.83920000
H      -48.62270000     -32.19830000     -72.92180000
C      -46.81960000     -33.54900000     -68.34770000
H      -45.93950000     -33.85820000     -67.80640000
H      -47.40590000     -32.99250000     -67.56200000
S      -46.67290000     -31.60140000     -74.37000000
S      -47.86780000     -35.03250000     -68.77760000
C      -46.48000000     -33.40560000     -74.67360000
H      -47.47520000     -33.70030000     -75.04740000
H      -45.91360000     -33.64620000     -75.56100000
C      -46.63380000     -36.27270000     -69.28770000
H      -47.31190000     -37.11010000     -69.59030000
H      -45.99570000     -36.56790000     -68.48560000
C      -45.83600000     -35.88650000     -70.51700000
H      -45.44420000     -36.79440000     -71.05730000
H      -46.49650000     -35.48280000     -71.28190000
C      -45.98910000     -34.32020000     -73.60000000
H      -46.04610000     -35.37190000     -74.00260000
H      -46.74100000     -34.30480000     -72.78040000
C      -44.58450000     -33.99830000     -73.08790000
C      -43.63030000     -33.23580000     -73.74650000
C      -44.12020000     -34.26920000     -71.63240000
H      -43.71110000     -32.80370000     -74.78340000
C      -42.88080000     -33.73380000     -71.39630000
C      -44.65460000     -34.92870000     -70.49080000
C      -43.78410000     -34.92060000     -69.44020000
S      -42.21690000     -32.91850000     -72.79550000
S      -42.27470000     -33.93920000     -69.74570000
H      -43.99980000     -35.36100000     -68.46430000
