40
Properties=species:S:1:pos:R:3 #=T CELL(abcABC):=T 1.889726e+02=T 90.00000=T Traj:=T positionsangstrom=T Step:=T 0=T Bead:=T pbc="F F F"
C      -45.37310000     -31.57740000     -69.46610000
C      -46.42070000     -32.49350000     -69.63060000
C      -47.15340000     -32.41760000     -70.79500000
C      -46.77360000     -31.61170000     -71.86860000
C      -45.64470000     -30.73900000     -71.73100000
C      -44.95870000     -30.73180000     -70.50570000
H      -44.80750000     -31.67980000     -68.50890000
H      -47.89830000     -33.20530000     -70.89380000
H      -45.24610000     -30.20150000     -72.53560000
H      -44.06710000     -30.15790000     -70.32910000
C      -47.63520000     -31.46630000     -73.07140000
H      -47.96650000     -30.38670000     -73.09560000
H      -48.48440000     -32.17600000     -72.98190000
C      -46.76520000     -33.31970000     -68.41600000
H      -45.93490000     -33.52970000     -67.67580000
H      -47.49840000     -32.67870000     -67.89400000
S      -46.73790000     -31.83760000     -74.71480000
S      -47.79860000     -34.86630000     -68.52790000
C      -46.41580000     -33.75120000     -74.77030000
H      -47.37020000     -34.17720000     -75.04860000
H      -45.56850000     -33.86840000     -75.45020000
C      -46.62090000     -36.17410000     -69.15020000
H      -47.19630000     -37.08570000     -69.24750000
H      -45.80710000     -36.49900000     -68.48990000
C      -46.14190000     -35.66530000     -70.52920000
H      -46.01640000     -36.50620000     -71.21560000
H      -46.82340000     -34.84380000     -70.95220000
C      -46.01230000     -34.31380000     -73.34850000
H      -46.09390000     -35.38200000     -73.51160000
H      -46.86080000     -34.01490000     -72.65490000
C      -44.60990000     -33.91970000     -72.82720000
C      -43.68000000     -33.33350000     -73.62050000
C      -44.09430000     -34.45860000     -71.56520000
H      -43.72210000     -32.92260000     -74.62500000
C      -42.82860000     -33.93050000     -71.31690000
C      -44.80550000     -34.94250000     -70.43180000
C      -44.01520000     -34.79530000     -69.32670000
S      -42.13630000     -33.00970000     -72.67640000
S      -42.39470000     -34.15790000     -69.65380000
H      -44.24860000     -35.22420000     -68.31770000
