40
Properties=species:S:1:pos:R:3 #=T CELL(abcABC):=T 1.889726e+02=T 90.00000=T Traj:=T positionsangstrom=T Step:=T 0=T Bead:=T pbc="F F F"
C      -42.66620000     -30.14490000     -72.61300000
C      -43.69880000     -30.91050000     -73.07360000
C      -44.97170000     -30.68470000     -72.56650000
C      -45.23220000     -29.81100000     -71.57650000
C      -44.09700000     -29.13590000     -70.99620000
C      -42.80810000     -29.28050000     -71.51710000
H      -41.72270000     -30.30910000     -73.02160000
H      -45.71810000     -31.25620000     -73.04340000
H      -44.26150000     -28.33540000     -70.29960000
H      -42.00820000     -28.66720000     -71.14050000
C      -46.61130000     -29.58300000     -70.92920000
H      -47.37320000     -29.82860000     -71.73160000
H      -46.78700000     -28.54240000     -70.64670000
C      -43.43210000     -31.89810000     -74.17650000
H      -44.07100000     -31.58000000     -74.91900000
H      -42.46880000     -31.80890000     -74.58630000
S      -46.89270000     -30.50830000     -69.42850000
S      -43.79930000     -33.59470000     -73.84710000
C      -46.87590000     -32.22860000     -70.03530000
H      -47.89630000     -32.51900000     -70.35340000
H      -46.18510000     -32.30030000     -70.88200000
C      -42.77710000     -33.84600000     -72.24070000
H      -42.06170000     -33.06300000     -72.07560000
H      -42.11720000     -34.70860000     -72.41610000
C      -43.64600000     -34.08570000     -71.02250000
H      -42.92630000     -34.37790000     -70.18250000
H      -44.10570000     -33.14690000     -70.69100000
C      -46.45780000     -33.35180000     -69.12710000
H      -46.91230000     -33.31000000     -68.12660000
H      -45.42780000     -33.32840000     -68.86620000
C      -46.70640000     -34.68630000     -69.67300000
C      -47.76440000     -35.43000000     -69.22930000
C      -45.83530000     -35.43280000     -70.49510000
H      -48.48190000     -35.12440000     -68.46860000
C      -46.38990000     -36.70890000     -70.85320000
C      -44.61090000     -35.26300000     -71.17300000
C      -44.25550000     -36.36630000     -71.96590000
S      -47.89050000     -36.97940000     -69.94560000
S      -45.52110000     -37.64730000     -72.00580000
H      -43.28880000     -36.39630000     -72.34440000
