40
Properties=species:S:1:pos:R:3 #=T CELL(abcABC):=T 1.889726e+02=T 90.00000=T Traj:=T positionsangstrom=T Step:=T 0=T Bead:=T pbc="F F F"
C      -47.28700000     -31.63760000     -68.38280000
C      -47.83840000     -32.84370000     -68.80470000
C      -48.14160000     -32.88540000     -70.15370000
C      -47.87120000     -31.88250000     -71.06590000
C      -47.24820000     -30.67290000     -70.65240000
C      -46.93860000     -30.62440000     -69.29460000
H      -47.03440000     -31.46470000     -67.32260000
H      -48.48990000     -33.78100000     -70.61620000
H      -47.10780000     -29.83700000     -71.25100000
H      -46.31980000     -29.88020000     -68.84430000
C      -48.27240000     -32.10620000     -72.53600000
H      -48.85820000     -31.24140000     -72.85510000
H      -48.86690000     -32.97230000     -72.74810000
C      -48.12930000     -34.01640000     -67.88250000
H      -48.16250000     -33.80510000     -66.85570000
H      -49.12470000     -34.42640000     -68.19960000
S      -46.60240000     -32.17890000     -73.46870000
S      -46.90750000     -35.44760000     -68.14750000
C      -46.62660000     -33.78960000     -74.34700000
H      -47.66530000     -34.12570000     -74.42150000
H      -46.29740000     -33.60380000     -75.34810000
C      -45.33260000     -34.72840000     -68.71030000
H      -44.48870000     -35.19680000     -68.10910000
H      -45.27160000     -33.69080000     -68.40970000
C      -45.15970000     -34.81740000     -70.27140000
H      -45.33540000     -35.86240000     -70.56070000
H      -45.98760000     -34.22050000     -70.67840000
C      -45.68270000     -34.76560000     -73.69010000
H      -45.57150000     -35.60530000     -74.37600000
H      -46.07250000     -35.12360000     -72.69990000
C      -44.32760000     -34.08880000     -73.51530000
C      -43.64350000     -33.66860000     -74.61550000
C      -43.65000000     -34.06610000     -72.27450000
H      -44.01220000     -33.61880000     -75.68540000
C      -42.34270000     -33.62010000     -72.49330000
C      -43.84230000     -34.38000000     -70.86960000
C      -42.72760000     -34.14300000     -70.11730000
S      -42.07790000     -33.11090000     -74.11860000
S      -41.38270000     -33.52710000     -71.01450000
H      -42.72850000     -34.36260000     -69.12320000
