40
Properties=species:S:1:pos:R:3 #=T CELL(abcABC):=T 1.889726e+02=T 90.00000=T Traj:=T positionsangstrom=T Step:=T 0=T Bead:=T pbc="F F F"
C      -47.04280000     -31.00350000     -68.85180000
C      -47.30790000     -32.38720000     -68.80620000
C      -47.80430000     -33.09960000     -69.94710000
C      -48.07070000     -32.36190000     -71.09080000
C      -47.62360000     -31.00370000     -71.11210000
C      -47.12130000     -30.26280000     -70.02800000
H      -46.62700000     -30.44310000     -67.97260000
H      -48.12050000     -34.09630000     -69.76570000
H      -47.68090000     -30.51280000     -72.09040000
H      -46.89860000     -29.28000000     -70.14850000
C      -48.79990000     -32.90460000     -72.25410000
H      -49.61910000     -32.24450000     -72.59090000
H      -49.16490000     -33.92940000     -72.02400000
C      -47.21170000     -33.09460000     -67.46930000
H      -47.15330000     -32.49550000     -66.54600000
H      -48.17010000     -33.67990000     -67.38430000
S      -47.65570000     -32.83690000     -73.77240000
S      -45.96700000     -34.53800000     -67.30820000
C      -47.21600000     -34.60840000     -73.74440000
H      -48.06910000     -35.14390000     -73.38850000
H      -47.02730000     -34.90960000     -74.74970000
C      -44.47800000     -34.03150000     -68.30990000
H      -43.56900000     -34.40240000     -67.82990000
H      -44.49820000     -32.88630000     -68.22080000
C      -44.53270000     -34.47370000     -69.82770000
H      -44.42320000     -35.57690000     -69.73430000
H      -45.51690000     -34.21150000     -70.16930000
C      -46.03640000     -35.00320000     -72.79170000
H      -45.94160000     -36.10980000     -72.75150000
H      -46.38550000     -34.66580000     -71.74610000
C      -44.66610000     -34.45620000     -73.18240000
C      -44.27950000     -34.31900000     -74.45620000
C      -43.61230000     -34.14090000     -72.21770000
H      -44.85800000     -34.58080000     -75.34640000
C      -42.40720000     -33.78990000     -72.91630000
C      -43.46650000     -33.95950000     -70.81810000
C      -42.20750000     -33.51890000     -70.43120000
S      -42.65930000     -33.71580000     -74.60640000
S      -41.18650000     -33.30090000     -71.79190000
H      -41.86150000     -33.39790000     -69.38140000
