40
Properties=species:S:1:pos:R:3 #=T CELL(abcABC):=T 1.889726e+02=T 90.00000=T Traj:=T positionsangstrom=T Step:=T 0=T Bead:=T pbc="F F F"
C      -48.97760000     -33.47790000     -69.47600000
C      -47.86890000     -34.31760000     -69.20510000
C      -46.73660000     -33.81340000     -68.53470000
C      -46.60880000     -32.43010000     -68.26540000
C      -47.68530000     -31.59110000     -68.65820000
C      -48.82820000     -32.07060000     -69.24130000
H      -49.83660000     -33.86240000     -70.04200000
H      -46.07370000     -34.60550000     -68.36260000
H      -47.35870000     -30.51560000     -68.58100000
H      -49.65960000     -31.47590000     -69.47040000
C      -45.54250000     -31.70470000     -67.53380000
H      -45.53720000     -31.90230000     -66.42660000
H      -45.98440000     -30.69670000     -67.49830000
C      -48.01070000     -35.83820000     -69.45200000
H      -48.11450000     -36.27840000     -68.54610000
H      -48.99000000     -36.01610000     -70.08760000
S      -43.80660000     -31.76370000     -68.14400000
S      -46.48800000     -36.61540000     -70.19750000
C      -44.22980000     -31.81970000     -69.96840000
H      -45.16780000     -32.41810000     -70.04330000
H      -44.36280000     -30.79480000     -70.35170000
C      -46.06550000     -35.54730000     -71.58490000
H      -46.18010000     -34.39150000     -71.24820000
H      -46.64170000     -35.74790000     -72.54930000
C      -44.58020000     -35.63950000     -72.00770000
H      -43.87700000     -35.49370000     -71.19600000
H      -44.33070000     -36.64550000     -72.39760000
C      -43.12260000     -32.53730000     -70.82420000
H      -42.98210000     -33.53650000     -70.58150000
H      -42.06990000     -32.16920000     -70.66990000
C      -43.56310000     -32.39490000     -72.30840000
C      -43.57590000     -31.16270000     -72.88580000
C      -43.86160000     -33.37530000     -73.27250000
H      -43.55570000     -30.12890000     -72.46240000
C      -43.99570000     -32.83120000     -74.56740000
C      -44.22510000     -34.75300000     -73.20370000
C      -44.42850000     -35.31240000     -74.43140000
S      -43.86950000     -31.14450000     -74.62200000
S      -44.36000000     -34.03530000     -75.78010000
H      -44.84780000     -36.18290000     -74.86120000
