40
Properties=species:S:1:pos:R:3 #=T CELL(abcABC):=T 1.889726e+02=T 90.00000=T Traj:=T positionsangstrom=T Step:=T 0=T Bead:=T pbc="F F F"
C      -47.08220000     -31.28630000     -68.41520000
C      -47.41780000     -32.60600000     -68.65610000
C      -47.94340000     -32.99300000     -69.85140000
C      -47.88960000     -32.12510000     -70.96800000
C      -47.30610000     -30.85610000     -70.82280000
C      -46.89150000     -30.46730000     -69.57310000
H      -46.78180000     -30.93030000     -67.45120000
H      -48.35450000     -33.99280000     -69.97350000
H      -47.25230000     -30.20320000     -71.72720000
H      -46.15850000     -29.60670000     -69.42840000
C      -48.57320000     -32.53380000     -72.25400000
H      -49.24510000     -31.63150000     -72.49640000
H      -49.17930000     -33.43980000     -72.26200000
C      -47.48230000     -33.49760000     -67.46640000
H      -47.26560000     -32.86260000     -66.54560000
H      -48.37080000     -34.13810000     -67.30280000
S      -47.38100000     -32.70270000     -73.68500000
S      -46.03040000     -34.65950000     -67.44950000
C      -47.19160000     -34.55570000     -73.90430000
H      -48.03160000     -35.08920000     -73.53500000
H      -47.01940000     -34.66610000     -74.98110000
C      -44.81630000     -34.02310000     -68.54800000
H      -43.83740000     -34.28950000     -68.08500000
H      -44.91900000     -32.98400000     -68.54900000
C      -44.92850000     -34.51470000     -70.02970000
H      -45.12140000     -35.58150000     -70.04430000
H      -45.82590000     -34.12850000     -70.56790000
C      -45.98710000     -35.18710000     -73.17880000
H      -46.05310000     -36.28220000     -73.37360000
H      -46.12590000     -35.04420000     -72.12640000
C      -44.54970000     -34.63990000     -73.46650000
C      -44.00550000     -34.36790000     -74.65220000
C      -43.68280000     -34.18530000     -72.37670000
H      -44.50790000     -34.54270000     -75.60180000
C      -42.53710000     -33.60860000     -72.88700000
C      -43.70120000     -34.15290000     -70.89780000
C      -42.56510000     -33.58330000     -70.35840000
S      -42.41880000     -33.60420000     -74.65530000
S      -41.36410000     -33.13440000     -71.62030000
H      -42.31620000     -33.28400000     -69.35970000
