40
Properties=species:S:1:pos:R:3 #=T CELL(abcABC):=T 1.889726e+02=T 90.00000=T Traj:=T positionsangstrom=T Step:=T 0=T Bead:=T pbc="F F F"
C      -46.95620000     -31.43290000     -68.30340000
C      -47.44780000     -32.72790000     -68.60340000
C      -47.97170000     -33.04930000     -69.88700000
C      -48.01540000     -32.05280000     -70.85160000
C      -47.44080000     -30.75900000     -70.62930000
C      -46.86620000     -30.51980000     -69.35100000
H      -46.35550000     -31.39040000     -67.36150000
H      -48.35130000     -34.03490000     -70.02560000
H      -47.33710000     -30.11060000     -71.43940000
H      -46.43790000     -29.55740000     -69.18530000
C      -48.44340000     -32.40520000     -72.22490000
H      -49.15690000     -31.72300000     -72.62380000
H      -48.94980000     -33.39020000     -72.08430000
C      -47.52020000     -33.70660000     -67.48040000
H      -47.47000000     -33.21880000     -66.46140000
H      -48.54580000     -34.20960000     -67.58870000
S      -46.91450000     -32.53740000     -73.42080000
S      -46.23020000     -35.08830000     -67.73630000
C      -46.91860000     -34.25100000     -74.11440000
H      -47.95850000     -34.75600000     -74.13230000
H      -46.58160000     -34.01320000     -75.15820000
C      -44.90330000     -34.21920000     -68.62560000
H      -43.95720000     -34.45800000     -68.22250000
H      -45.15930000     -33.12080000     -68.37020000
C      -45.07070000     -34.46790000     -70.11520000
H      -45.19350000     -35.56340000     -70.34520000
H      -45.98380000     -34.06560000     -70.49680000
C      -45.91070000     -35.17910000     -73.39210000
H      -45.86210000     -36.16230000     -73.77950000
H      -46.21410000     -35.45280000     -72.35020000
C      -44.50030000     -34.63120000     -73.45180000
C      -43.87510000     -34.51630000     -74.62920000
C      -43.77980000     -33.98590000     -72.37270000
H      -44.30610000     -34.91990000     -75.53040000
C      -42.58760000     -33.38630000     -72.89360000
C      -43.92540000     -33.94210000     -70.96760000
C      -42.76040000     -33.39110000     -70.40450000
S      -42.39080000     -33.66900000     -74.59840000
S      -41.53030000     -32.99250000     -71.62340000
H      -42.55170000     -33.29550000     -69.35400000
