40
Properties=species:S:1:pos:R:3 #=T CELL(abcABC):=T 1.889726e+02=T 90.00000=T Traj:=T positionsangstrom=T Step:=T 0=T Bead:=T pbc="F F F"
C      -46.94780000     -31.30360000     -68.37150000
C      -47.55490000     -32.59830000     -68.51880000
C      -48.01930000     -33.03940000     -69.78740000
C      -47.97240000     -32.12440000     -70.86160000
C      -47.31790000     -30.85600000     -70.71760000
C      -46.80400000     -30.43200000     -69.47100000
H      -46.71000000     -31.00150000     -67.36790000
H      -48.40350000     -34.04260000     -69.86340000
H      -47.25920000     -30.19700000     -71.55940000
H      -46.41490000     -29.41810000     -69.29320000
C      -48.38160000     -32.58890000     -72.24840000
H      -49.10940000     -31.89340000     -72.63340000
H      -48.90430000     -33.55210000     -72.26470000
C      -47.51920000     -33.64600000     -67.41000000
H      -47.55220000     -33.17700000     -66.45320000
H      -48.41240000     -34.22610000     -67.40210000
S      -47.03720000     -32.62510000     -73.60260000
S      -46.17730000     -34.86900000     -67.49020000
C      -47.18170000     -34.45520000     -74.07860000
H      -48.04090000     -34.86210000     -73.69700000
H      -47.39490000     -34.51950000     -75.19730000
C      -44.82590000     -34.19940000     -68.58900000
H      -43.90820000     -34.71320000     -68.34290000
H      -44.67360000     -33.13700000     -68.28810000
C      -45.05910000     -34.47720000     -70.10380000
H      -45.16320000     -35.54500000     -70.14250000
H      -46.02720000     -33.96990000     -70.37910000
C      -45.95690000     -35.21280000     -73.45950000
H      -45.96290000     -36.26740000     -73.84960000
H      -46.29580000     -35.18790000     -72.40530000
C      -44.58270000     -34.57130000     -73.50470000
C      -44.02450000     -34.34330000     -74.68980000
C      -43.71470000     -34.16930000     -72.39190000
H      -44.59820000     -34.51360000     -75.60390000
C      -42.50880000     -33.64480000     -72.87580000
C      -43.81790000     -34.07280000     -70.92480000
C      -42.68480000     -33.39680000     -70.38720000
S      -42.39880000     -33.59450000     -74.64290000
S      -41.43020000     -33.01280000     -71.61980000
H      -42.47770000     -33.07870000     -69.39230000
