40
Properties=species:S:1:pos:R:3 #=T CELL(abcABC):=T 1.889726e+02=T 90.00000=T Traj:=T positionsangstrom=T Step:=T 0=T Bead:=T pbc="F F F"
C      -46.86520000     -31.19980000     -68.59730000
C      -47.38960000     -32.46590000     -68.69150000
C      -47.96540000     -32.94960000     -69.87420000
C      -48.01940000     -32.13450000     -70.99870000
C      -47.61130000     -30.83600000     -70.86910000
C      -47.00470000     -30.37290000     -69.71470000
H      -46.37220000     -30.86100000     -67.66640000
H      -48.30890000     -33.99490000     -69.98470000
H      -47.62480000     -30.14170000     -71.72650000
H      -46.76310000     -29.32730000     -69.52580000
C      -48.52330000     -32.70040000     -72.34210000
H      -49.46020000     -32.19780000     -72.50400000
H      -48.84480000     -33.71470000     -72.12240000
C      -47.30120000     -33.40500000     -67.49690000
H      -47.14320000     -32.69820000     -66.67030000
H      -48.23710000     -33.85760000     -67.38380000
S      -47.48550000     -32.81960000     -73.81870000
S      -45.99950000     -34.63930000     -67.44650000
C      -47.05720000     -34.57860000     -73.94650000
H      -48.08690000     -35.17170000     -73.91230000
H      -46.71300000     -34.74430000     -74.93710000
C      -44.63870000     -33.83270000     -68.50680000
H      -43.63620000     -33.87960000     -68.01840000
H      -44.80470000     -32.79110000     -68.63480000
C      -44.70410000     -34.53020000     -69.89070000
H      -44.55790000     -35.64990000     -69.79530000
H      -45.62520000     -34.42100000     -70.34250000
C      -46.06090000     -35.08090000     -73.01340000
H      -45.99600000     -36.14800000     -73.15490000
H      -46.43800000     -34.99760000     -71.96940000
C      -44.70900000     -34.50330000     -73.25870000
C      -44.25950000     -34.25900000     -74.48740000
C      -43.73200000     -34.06250000     -72.20390000
H      -44.72140000     -34.46520000     -75.43360000
C      -42.57650000     -33.60880000     -72.86420000
C      -43.56370000     -34.04940000     -70.76170000
C      -42.31010000     -33.68070000     -70.35200000
S      -42.53580000     -33.78990000     -74.57860000
S      -41.30680000     -33.19830000     -71.73920000
H      -41.88190000     -33.74370000     -69.33800000
