40
Properties=species:S:1:pos:R:3 #=T CELL(abcABC):=T 1.889726e+02=T 90.00000=T Traj:=T positionsangstrom=T Step:=T 0=T Bead:=T pbc="F F F"
C      -46.80260000     -30.98270000     -68.93420000
C      -47.23090000     -32.32340000     -68.77290000
C      -47.96770000     -32.92810000     -69.75220000
C      -48.22060000     -32.31930000     -70.96920000
C      -47.78520000     -31.01910000     -71.12620000
C      -47.07320000     -30.37400000     -70.10900000
H      -46.28380000     -30.45260000     -68.15260000
H      -48.22730000     -33.97150000     -69.65400000
H      -48.01580000     -30.45050000     -71.96830000
H      -46.63780000     -29.44030000     -70.32420000
C      -48.85500000     -33.04980000     -72.13330000
H      -49.78440000     -32.56320000     -72.52360000
H      -49.07900000     -34.03590000     -71.79120000
C      -46.95890000     -32.89610000     -67.44390000
H      -46.38660000     -32.13360000     -66.92210000
H      -47.87940000     -33.08900000     -66.87730000
S      -47.92710000     -33.15060000     -73.82130000
S      -45.86030000     -34.39970000     -67.41680000
C      -47.16780000     -34.90970000     -73.75920000
H      -47.90740000     -35.57660000     -73.35850000
H      -46.85680000     -35.08590000     -74.86500000
C      -44.31960000     -33.93950000     -68.46590000
H      -43.50310000     -34.54400000     -68.11850000
H      -44.14560000     -32.84000000     -68.35860000
C      -44.56300000     -34.34430000     -69.88960000
H      -44.85930000     -35.33370000     -69.92530000
H      -45.46630000     -33.83940000     -70.37160000
C      -46.03240000     -34.85950000     -72.67170000
H      -45.93470000     -35.77650000     -72.14050000
H      -46.41100000     -34.21740000     -71.94330000
C      -44.68950000     -34.32820000     -73.14050000
C      -44.31710000     -34.24480000     -74.44260000
C      -43.61170000     -34.10260000     -72.22620000
H      -44.92950000     -34.39770000     -75.30780000
C      -42.42100000     -33.70650000     -72.89090000
C      -43.42800000     -34.10380000     -70.84870000
C      -42.12860000     -33.83080000     -70.38810000
S      -42.65640000     -33.69880000     -74.60820000
S      -41.18610000     -33.24050000     -71.73750000
H      -41.85430000     -33.56290000     -69.36520000
