40
Properties=species:S:1:pos:R:3 #=T CELL(abcABC):=T 1.889726e+02=T 90.00000=T Traj:=T positionsangstrom=T Step:=T 0=T Bead:=T pbc="F F F"
C      -48.06460000     -35.27110000     -73.51790000
C      -46.82540000     -34.90210000     -74.07780000
C      -45.62910000     -35.52020000     -73.63550000
C      -45.69870000     -36.50100000     -72.55120000
C      -46.97890000     -36.79180000     -72.02340000
C      -48.16050000     -36.21250000     -72.49330000
H      -48.95760000     -34.67210000     -73.80670000
H      -44.63520000     -35.33230000     -74.03630000
H      -46.99740000     -37.52730000     -71.18660000
H      -49.06880000     -36.49040000     -71.95070000
C      -44.41460000     -37.16290000     -72.04180000
H      -44.13070000     -37.92040000     -72.81730000
H      -44.74260000     -37.61640000     -71.06760000
C      -46.65750000     -33.72290000     -75.03960000
H      -46.55760000     -34.07040000     -76.01710000
H      -47.49740000     -33.10130000     -75.03200000
S      -42.98780000     -36.05080000     -71.85240000
S      -45.17010000     -32.67430000     -74.79630000
C      -43.50610000     -34.97690000     -70.36310000
H      -44.62480000     -34.94020000     -70.33620000
H      -43.26830000     -35.50780000     -69.48020000
C      -45.42710000     -31.80200000     -73.23390000
H      -46.21390000     -31.04950000     -73.42800000
H      -44.43850000     -31.31120000     -73.12000000
C      -45.89290000     -32.50460000     -72.05100000
H      -46.89250000     -32.85170000     -72.11270000
H      -45.29610000     -33.37020000     -71.83440000
C      -42.95930000     -33.50800000     -70.30790000
H      -42.92350000     -33.03520000     -71.30110000
H      -41.92500000     -33.44080000     -69.93880000
C      -43.82480000     -32.68760000     -69.36010000
C      -43.35790000     -32.40520000     -68.13830000
C      -45.08730000     -31.92360000     -69.65650000
H      -42.42310000     -32.78760000     -67.71960000
C      -45.48990000     -31.11560000     -68.64330000
C      -45.75480000     -31.61310000     -70.88210000
C      -46.62900000     -30.55510000     -70.65310000
S      -44.53660000     -31.34090000     -67.21180000
S      -46.65280000     -29.89950000     -68.93870000
H      -47.23610000     -30.16030000     -71.42950000
