40
Properties=species:S:1:pos:R:3 #=T CELL(abcABC):=T 1.889726e+02=T 90.00000=T Traj:=T positionsangstrom=T Step:=T 0=T Bead:=T pbc="F F F"
C      -48.27200000     -34.85190000     -73.58860000
C      -48.20540000     -35.02480000     -72.18420000
C      -47.18070000     -35.85970000     -71.62560000
C      -46.22300000     -36.42010000     -72.50320000
C      -46.31590000     -36.19570000     -73.88790000
C      -47.34170000     -35.44310000     -74.44430000
H      -49.05800000     -34.09870000     -73.92250000
H      -47.13080000     -35.95520000     -70.50830000
H      -45.61760000     -36.64430000     -74.59670000
H      -47.48230000     -35.33430000     -75.51800000
C      -45.06310000     -37.24340000     -71.89700000
H      -44.58110000     -37.92380000     -72.63950000
H      -45.23280000     -37.80980000     -70.95940000
C      -49.19080000     -34.32260000     -71.27920000
H      -50.24320000     -34.71510000     -71.34480000
H      -48.91870000     -34.47570000     -70.30630000
S      -43.60730000     -35.96430000     -71.42540000
S      -49.21550000     -32.53880000     -71.52000000
C      -43.28730000     -34.80640000     -72.93380000
H      -42.20640000     -34.67280000     -73.02920000
H      -43.60970000     -35.35830000     -73.84760000
C      -47.93260000     -31.95690000     -70.32870000
H      -48.04760000     -32.22090000     -69.25750000
H      -48.11390000     -30.86630000     -70.46710000
C      -46.53710000     -32.35360000     -70.81810000
H      -46.34920000     -33.42140000     -70.57940000
H      -46.29680000     -32.21910000     -71.90850000
C      -44.03670000     -33.45040000     -72.73440000
H      -45.06810000     -33.68710000     -72.56110000
H      -44.04620000     -32.88470000     -73.69990000
C      -43.38850000     -32.58830000     -71.70730000
C      -42.04640000     -32.27090000     -71.79260000
C      -44.00990000     -31.87340000     -70.58780000
H      -41.31790000     -32.53360000     -72.54410000
C      -43.04530000     -31.10490000     -69.88420000
C      -45.39200000     -31.74030000     -70.08300000
C      -45.38410000     -31.03320000     -68.92780000
S      -41.44780000     -31.20840000     -70.54350000
S      -43.77260000     -30.48000000     -68.37900000
H      -46.27470000     -30.76110000     -68.30990000
