40
Properties=species:S:1:pos:R:3 #=T CELL(abcABC):=T 1.889726e+02=T 90.00000=T Traj:=T positionsangstrom=T Step:=T 0=T Bead:=T pbc="F F F"
C      -48.28560000     -34.91090000     -73.22530000
C      -47.11670000     -34.70310000     -74.01830000
C      -45.98420000     -35.57140000     -73.87050000
C      -45.91030000     -36.47240000     -72.82500000
C      -47.07160000     -36.67500000     -71.99770000
C      -48.23950000     -35.86400000     -72.18120000
H      -49.15800000     -34.31330000     -73.25290000
H      -45.17330000     -35.62550000     -74.53710000
H      -47.02990000     -37.28080000     -71.08390000
H      -49.20740000     -36.26400000     -71.87440000
C      -44.62780000     -37.24960000     -72.63550000
H      -44.19740000     -37.59380000     -73.55700000
H      -44.89650000     -38.00350000     -71.92950000
C      -47.04280000     -33.55450000     -74.99540000
H      -46.94240000     -33.94610000     -75.97600000
H      -47.89320000     -32.99400000     -74.90760000
S      -43.29570000     -36.18490000     -72.00550000
S      -45.59340000     -32.32290000     -74.83490000
C      -44.01130000     -35.13600000     -70.65830000
H      -45.06490000     -34.88100000     -70.78130000
H      -43.94640000     -35.77850000     -69.78080000
C      -46.00340000     -31.43470000     -73.27510000
H      -47.02100000     -31.59070000     -72.93270000
H      -45.75130000     -30.36370000     -73.37230000
C      -45.06200000     -31.93140000     -72.19190000
H      -45.07760000     -33.01530000     -72.21580000
H      -44.03190000     -31.55340000     -72.32860000
C      -43.17290000     -33.91040000     -70.38250000
H      -42.78880000     -33.36040000     -71.30160000
H      -42.21000000     -34.30270000     -69.92410000
C      -43.71750000     -32.95140000     -69.34360000
C      -43.36020000     -33.06950000     -68.04130000
C      -44.64190000     -31.86720000     -69.63600000
H      -42.59260000     -33.77680000     -67.60740000
C      -44.92780000     -31.16130000     -68.46490000
C      -45.37830000     -31.45570000     -70.77850000
C      -46.23640000     -30.37620000     -70.47140000
S      -44.09700000     -31.82420000     -67.04150000
S      -46.13530000     -29.98730000     -68.73770000
H      -46.88580000     -29.78890000     -71.11490000
