40
Properties=species:S:1:pos:R:3 #=T CELL(abcABC):=T 1.889726e+02=T 90.00000=T Traj:=T positionsangstrom=T Step:=T 0=T Bead:=T pbc="F F F"
C      -48.18580000     -34.88610000     -73.39480000
C      -46.99310000     -34.72290000     -74.12320000
C      -45.87130000     -35.47570000     -73.82580000
C      -45.98940000     -36.46820000     -72.85280000
C      -47.19160000     -36.72920000     -72.17840000
C      -48.28320000     -35.92410000     -72.44820000
H      -49.01220000     -34.18170000     -73.42580000
H      -44.81250000     -35.35620000     -74.22660000
H      -47.18230000     -37.49800000     -71.33360000
H      -49.11280000     -35.91700000     -71.70840000
C      -44.78070000     -37.27980000     -72.36670000
H      -44.31320000     -38.04500000     -73.06700000
H      -45.06520000     -37.93510000     -71.48990000
C      -46.93630000     -33.65380000     -75.13940000
H      -46.71770000     -34.12490000     -76.16090000
H      -47.98450000     -33.13030000     -75.11280000
S      -43.42560000     -36.09270000     -71.96030000
S      -45.57810000     -32.46100000     -74.88970000
C      -44.15350000     -35.02050000     -70.56790000
H      -44.99170000     -34.52220000     -71.03510000
H      -44.56160000     -35.74840000     -69.82430000
C      -46.00800000     -31.61020000     -73.31080000
H      -47.11490000     -31.70920000     -73.09000000
H      -45.73980000     -30.54240000     -73.47480000
C      -45.23860000     -32.14950000     -72.09660000
H      -45.53520000     -33.17840000     -71.92240000
H      -44.17750000     -32.20420000     -72.41630000
C      -43.13370000     -33.99140000     -70.22740000
H      -42.84080000     -33.59370000     -71.25940000
H      -42.27940000     -34.41620000     -69.85970000
C      -43.57750000     -32.94100000     -69.27370000
C      -43.29810000     -32.95040000     -67.96840000
C      -44.57980000     -31.89320000     -69.59200000
H      -42.60780000     -33.64920000     -67.53360000
C      -44.89960000     -31.15150000     -68.42410000
C      -45.30710000     -31.43370000     -70.78440000
C      -46.11500000     -30.36590000     -70.48810000
S      -44.10510000     -31.66900000     -66.96820000
S      -46.08160000     -29.93060000     -68.78470000
H      -46.57970000     -29.76200000     -71.23580000
