40
Properties=species:S:1:pos:R:3 #=T CELL(abcABC):=T 1.889726e+02=T 90.00000=T Traj:=T positionsangstrom=T Step:=T 0=T Bead:=T pbc="F F F"
C      -48.23200000     -34.67290000     -73.10960000
C      -47.13480000     -34.60060000     -74.00160000
C      -45.97100000     -35.27340000     -73.65590000
C      -45.95160000     -36.21460000     -72.65030000
C      -47.03490000     -36.25810000     -71.74900000
C      -48.15440000     -35.51810000     -71.98960000
H      -49.19690000     -34.15100000     -73.28770000
H      -45.18510000     -35.10300000     -74.35470000
H      -47.07620000     -36.92440000     -70.88780000
H      -48.97040000     -35.47300000     -71.23980000
C      -44.69050000     -37.05200000     -72.55570000
H      -44.55530000     -37.59720000     -73.55500000
H      -44.68580000     -37.76980000     -71.69960000
C      -47.20190000     -33.56670000     -75.11080000
H      -47.08070000     -34.06070000     -76.13860000
H      -48.20960000     -33.08070000     -75.09300000
S      -43.15490000     -36.09260000     -72.32740000
S      -45.84110000     -32.34370000     -74.91580000
C      -43.66910000     -35.14720000     -70.68080000
H      -44.73890000     -35.15690000     -70.87150000
H      -43.56780000     -35.87950000     -69.92590000
C      -46.21500000     -31.65620000     -73.22480000
H      -47.11410000     -32.15660000     -72.90360000
H      -46.42170000     -30.53920000     -73.25160000
C      -45.09620000     -31.97900000     -72.19700000
H      -44.91210000     -33.10720000     -72.21390000
H      -44.17110000     -31.46460000     -72.53560000
C      -42.83770000     -33.86500000     -70.45230000
H      -42.75050000     -33.28710000     -71.37900000
H      -41.78200000     -34.08330000     -70.15880000
C      -43.52380000     -33.00320000     -69.36060000
C      -43.14750000     -33.07470000     -68.06130000
C      -44.61090000     -31.96730000     -69.61930000
H      -42.42600000     -33.79170000     -67.65400000
C      -44.97770000     -31.36010000     -68.45770000
C      -45.37000000     -31.58580000     -70.79070000
C      -46.37070000     -30.71410000     -70.40910000
S      -44.00780000     -31.89780000     -67.06600000
S      -46.33860000     -30.29290000     -68.66220000
H      -47.15260000     -30.38300000     -71.05530000
