40
Properties=species:S:1:pos:R:3 #=T CELL(abcABC):=T 1.889726e+02=T 90.00000=T Traj:=T positionsangstrom=T Step:=T 0=T Bead:=T pbc="F F F"
C      -48.07800000     -34.53960000     -72.92620000
C      -47.01300000     -34.42180000     -73.88320000
C      -45.93400000     -35.31530000     -73.84080000
C      -45.84540000     -36.31220000     -72.77990000
C      -46.88660000     -36.43290000     -71.86530000
C      -47.98710000     -35.55190000     -71.93750000
H      -48.85190000     -33.76600000     -72.97100000
H      -45.30310000     -35.28590000     -74.71950000
H      -46.82720000     -37.13710000     -70.98830000
H      -48.85030000     -35.92430000     -71.33440000
C      -44.64280000     -37.27020000     -72.54360000
H      -44.53330000     -37.78810000     -73.53930000
H      -44.95940000     -38.02320000     -71.77250000
C      -47.23690000     -33.49450000     -75.05620000
H      -46.84570000     -33.94780000     -75.99590000
H      -48.31210000     -33.20690000     -75.17260000
S      -43.12480000     -36.40650000     -71.86170000
S      -46.15810000     -31.94040000     -74.97380000
C      -43.78440000     -35.19860000     -70.68530000
H      -44.74110000     -34.77040000     -71.05150000
H      -43.97300000     -35.55120000     -69.63960000
C      -46.08130000     -31.28340000     -73.31380000
H      -47.01200000     -31.29040000     -72.73850000
H      -45.73100000     -30.24200000     -73.24080000
C      -45.21780000     -32.06190000     -72.26100000
H      -45.59350000     -33.10980000     -72.23680000
H      -44.17890000     -32.12690000     -72.59070000
C      -42.84300000     -33.95630000     -70.46990000
H      -42.78820000     -33.37400000     -71.42670000
H      -41.81010000     -34.18370000     -70.15250000
C      -43.57740000     -33.05790000     -69.46630000
C      -43.29180000     -33.13920000     -68.14010000
C      -44.54720000     -32.00400000     -69.75820000
H      -42.48470000     -33.65320000     -67.68160000
C      -44.94490000     -31.44140000     -68.55780000
C      -45.33100000     -31.53420000     -70.90750000
C      -46.16070000     -30.53450000     -70.45290000
S      -44.19690000     -32.04220000     -67.12340000
S      -46.17380000     -30.24640000     -68.71820000
H      -46.67410000     -29.87170000     -71.14950000
