40
Properties=species:S:1:pos:R:3 #=T CELL(abcABC):=T 1.889726e+02=T 90.00000=T Traj:=T positionsangstrom=T Step:=T 0=T Bead:=T pbc="F F F"
C      -48.19760000     -34.53870000     -73.10550000
C      -47.18670000     -34.40200000     -74.03220000
C      -46.02630000     -35.32200000     -73.89770000
C      -45.89430000     -36.15120000     -72.80300000
C      -46.88370000     -36.14740000     -71.75230000
C      -48.07130000     -35.43620000     -71.98740000
H      -49.07360000     -33.96390000     -73.15490000
H      -45.20890000     -35.31920000     -74.65990000
H      -46.61500000     -36.66750000     -70.89030000
H      -48.83480000     -35.35960000     -71.24790000
C      -44.65970000     -37.03510000     -72.66140000
H      -44.29960000     -37.55550000     -73.52760000
H      -44.90850000     -37.79140000     -71.86140000
C      -47.24420000     -33.37910000     -75.17390000
H      -47.21940000     -33.80390000     -76.17460000
H      -48.08510000     -32.76920000     -74.97520000
S      -43.14610000     -36.10860000     -72.18340000
S      -45.77910000     -32.33710000     -74.83990000
C      -43.61590000     -35.33320000     -70.59330000
H      -44.69050000     -35.24170000     -70.66470000
H      -43.36370000     -36.07930000     -69.82670000
C      -46.11700000     -31.61740000     -73.25090000
H      -47.06040000     -32.14310000     -72.93190000
H      -46.29400000     -30.57010000     -73.29300000
C      -45.00930000     -32.04760000     -72.20260000
H      -44.97420000     -33.13540000     -72.23060000
H      -44.03990000     -31.70960000     -72.52290000
C      -43.00300000     -33.99550000     -70.38700000
H      -42.79120000     -33.67830000     -71.40690000
H      -41.98250000     -34.29160000     -69.97120000
C      -43.69650000     -33.09670000     -69.33600000
C      -43.41680000     -33.23080000     -68.00460000
C      -44.64630000     -32.07740000     -69.63810000
H      -42.77420000     -33.92440000     -67.49380000
C      -44.93800000     -31.28040000     -68.45890000
C      -45.31340000     -31.60290000     -70.80740000
C      -46.34120000     -30.71840000     -70.46530000
S      -44.09220000     -31.97180000     -67.02830000
S      -46.32280000     -30.23950000     -68.74710000
H      -46.99940000     -30.20360000     -71.13450000
