40
Properties=species:S:1:pos:R:3 #=T CELL(abcABC):=T 1.889726e+02=T 90.00000=T Traj:=T positionsangstrom=T Step:=T 0=T Bead:=T pbc="F F F"
C      -47.87680000     -31.91770000     -68.07320000
C      -47.54490000     -31.16520000     -69.21470000
C      -47.78460000     -31.69890000     -70.50600000
C      -48.41900000     -32.94810000     -70.70160000
C      -48.71770000     -33.67790000     -69.51720000
C      -48.45050000     -33.15770000     -68.19080000
H      -47.45490000     -31.57980000     -67.15380000
H      -47.43360000     -31.14690000     -71.38760000
H      -49.11230000     -34.65640000     -69.53780000
H      -48.59270000     -33.79510000     -67.38600000
C      -48.78750000     -33.39530000     -72.11440000
H      -49.07810000     -32.59470000     -72.75310000
H      -49.46590000     -34.16750000     -72.08160000
C      -46.73450000     -29.84210000     -69.00970000
H      -46.92060000     -29.33210000     -69.91000000
H      -47.05860000     -29.22820000     -68.16020000
S      -47.32500000     -34.15700000     -72.95400000
S      -44.86540000     -30.11790000     -68.86620000
C      -47.08500000     -35.72000000     -72.02890000
H      -47.91970000     -35.92310000     -71.28690000
H      -46.99180000     -36.62570000     -72.65400000
C      -44.21130000     -30.82390000     -70.42840000
H      -43.14460000     -30.66070000     -70.42400000
H      -44.59690000     -30.36090000     -71.29430000
C      -44.37330000     -32.34710000     -70.64850000
H      -44.33870000     -32.92570000     -69.68900000
H      -45.42770000     -32.40260000     -71.08740000
C      -45.81800000     -35.68010000     -71.11090000
H      -45.85970000     -36.60740000     -70.55760000
H      -45.82560000     -34.85630000     -70.34320000
C      -44.58980000     -35.56120000     -71.97100000
C      -44.18880000     -36.67730000     -72.74450000
C      -43.65590000     -34.45350000     -72.09570000
H      -44.62710000     -37.71330000     -72.84530000
C      -42.64800000     -34.77310000     -73.02660000
C      -43.45920000     -33.05710000     -71.59710000
C      -42.32820000     -32.51890000     -72.14890000
S      -42.79780000     -36.37030000     -73.72820000
S      -41.42740000     -33.57640000     -73.14640000
H      -42.00290000     -31.52210000     -71.86520000
