40
Properties=species:S:1:pos:R:3 #=T CELL(abcABC):=T 1.889726e+02=T 90.00000=T Traj:=T positionsangstrom=T Step:=T 0=T Bead:=T pbc="F F F"
C      -48.08970000     -34.63920000     -73.00600000
C      -46.99740000     -34.49270000     -73.90280000
C      -45.84210000     -35.25360000     -73.75420000
C      -45.82660000     -36.27230000     -72.77750000
C      -46.91270000     -36.42900000     -71.90610000
C      -48.04070000     -35.61000000     -71.97840000
H      -48.91530000     -34.00040000     -73.06000000
H      -45.06490000     -35.31590000     -74.52630000
H      -46.87160000     -37.28230000     -71.24420000
H      -48.90780000     -35.77130000     -71.42560000
C      -44.63620000     -37.18460000     -72.52650000
H      -44.25990000     -37.71240000     -73.46260000
H      -44.87570000     -38.04970000     -71.82440000
C      -47.15570000     -33.46420000     -74.98800000
H      -46.94980000     -33.90920000     -75.95430000
H      -48.17670000     -33.01010000     -75.04070000
S      -43.26240000     -36.09260000     -72.07400000
S      -45.99930000     -32.01410000     -74.96930000
C      -44.00070000     -35.14830000     -70.70370000
H      -44.97090000     -34.71120000     -70.82240000
H      -43.92590000     -35.73950000     -69.79210000
C      -46.15970000     -31.37300000     -73.27500000
H      -47.26300000     -31.22810000     -72.99790000
H      -45.90680000     -30.30330000     -73.29030000
C      -45.31050000     -32.16210000     -72.20780000
H      -45.62500000     -33.19640000     -72.24400000
H      -44.26980000     -32.16240000     -72.45460000
C      -42.97690000     -33.94580000     -70.55240000
H      -42.79280000     -33.22840000     -71.40560000
H      -42.02640000     -34.29650000     -70.17650000
C      -43.48230000     -32.96420000     -69.49110000
C      -42.98090000     -32.96040000     -68.19460000
C      -44.56890000     -32.03750000     -69.67420000
H      -42.17400000     -33.68290000     -67.89050000
C      -44.93110000     -31.40350000     -68.45810000
C      -45.44040000     -31.68110000     -70.77810000
C      -46.41820000     -30.78370000     -70.33310000
S      -43.93930000     -32.00210000     -67.14070000
S      -46.29320000     -30.41080000     -68.61420000
H      -47.17940000     -30.29820000     -70.96350000
