40
Properties=species:S:1:pos:R:3 #=T CELL(abcABC):=T 1.889726e+02=T 90.00000=T Traj:=T positionsangstrom=T Step:=T 0=T Bead:=T pbc="F F F"
C      -48.09000000     -34.51760000     -73.03160000
C      -47.08130000     -34.52860000     -73.97630000
C      -46.00890000     -35.40370000     -73.86620000
C      -45.93350000     -36.31070000     -72.77130000
C      -47.03960000     -36.45170000     -71.94210000
C      -48.12830000     -35.60910000     -72.12380000
H      -49.01610000     -33.96660000     -73.20480000
H      -45.10180000     -35.26590000     -74.50870000
H      -46.99430000     -37.15320000     -71.12100000
H      -48.98050000     -35.64100000     -71.45530000
C      -44.68480000     -37.13540000     -72.73880000
H      -44.47850000     -37.45590000     -73.75000000
H      -44.79860000     -37.95370000     -72.11990000
C      -47.17160000     -33.47670000     -75.06010000
H      -46.95670000     -34.00810000     -75.98580000
H      -48.17100000     -33.12900000     -75.03800000
S      -43.12450000     -36.31170000     -72.12300000
S      -45.88020000     -32.10590000     -74.84520000
C      -43.72550000     -35.08040000     -70.87140000
H      -44.76060000     -34.79270000     -71.23820000
H      -43.91630000     -35.69180000     -70.01440000
C      -46.22100000     -31.30330000     -73.18230000
H      -47.22540000     -31.25210000     -72.85670000
H      -45.74690000     -30.33250000     -73.33840000
C      -45.39210000     -32.13170000     -72.09500000
H      -45.76400000     -33.18960000     -72.17530000
H      -44.31340000     -32.01740000     -72.38770000
C      -42.88070000     -33.80830000     -70.57940000
H      -42.87950000     -33.31250000     -71.61950000
H      -41.85830000     -34.07880000     -70.33620000
C      -43.61710000     -33.05740000     -69.45310000
C      -43.08630000     -33.06520000     -68.16130000
C      -44.64330000     -32.07310000     -69.65320000
H      -42.32240000     -33.70900000     -67.75480000
C      -44.94950000     -31.44680000     -68.42960000
C      -45.57310000     -31.64780000     -70.68440000
C      -46.43150000     -30.66160000     -70.22860000
S      -43.82890000     -31.84570000     -67.15330000
S      -46.31530000     -30.31550000     -68.51620000
H      -47.28600000     -30.20930000     -70.72000000
