40
Properties=species:S:1:pos:R:3 #=T CELL(abcABC):=T 1.889726e+02=T 90.00000=T Traj:=T positionsangstrom=T Step:=T 0=T Bead:=T pbc="F F F"
C      -48.31450000     -34.22470000     -73.56700000
C      -47.05050000     -34.00130000     -74.22020000
C      -46.05980000     -34.99620000     -73.99130000
C      -46.24240000     -36.04510000     -73.18270000
C      -47.39010000     -36.05820000     -72.32320000
C      -48.44910000     -35.19010000     -72.56970000
H      -49.14220000     -33.54230000     -73.72340000
H      -45.06000000     -34.92610000     -74.46710000
H      -47.45530000     -36.71640000     -71.48590000
H      -49.39010000     -35.05040000     -71.90510000
C      -45.14260000     -37.08900000     -73.02600000
H      -44.67880000     -37.24720000     -73.98100000
H      -45.62470000     -38.03240000     -72.75490000
C      -46.81230000     -32.73210000     -75.06540000
H      -46.89250000     -32.84810000     -76.15860000
H      -47.46750000     -31.95610000     -74.74280000
S      -43.63980000     -36.54330000     -71.87430000
S      -45.04540000     -32.06540000     -74.92450000
C      -44.43940000     -35.62170000     -70.47320000
H      -45.20420000     -35.15260000     -70.94790000
H      -44.63760000     -36.30580000     -69.61810000
C      -45.03070000     -31.48960000     -73.18790000
H      -45.68010000     -30.61860000     -73.18230000
H      -44.00610000     -31.07640000     -73.04390000
C      -45.40310000     -32.45730000     -72.04620000
H      -46.37000000     -32.94040000     -72.08260000
H      -44.61650000     -33.23440000     -72.02460000
C      -43.35250000     -34.55750000     -70.07950000
H      -43.01930000     -34.02340000     -70.99470000
H      -42.45670000     -35.06610000     -69.61650000
C      -43.84320000     -33.40140000     -69.15510000
C      -43.51130000     -33.41350000     -67.86390000
C      -44.56020000     -32.16260000     -69.48340000
H      -42.82610000     -34.10090000     -67.38080000
C      -44.73380000     -31.37360000     -68.36600000
C      -45.34460000     -31.70140000     -70.61810000
C      -46.20800000     -30.66790000     -70.34160000
S      -44.00660000     -32.01630000     -66.91710000
S      -45.97110000     -30.15570000     -68.66990000
H      -46.84650000     -30.15950000     -71.03950000
