40
Properties=species:S:1:pos:R:3 #=T CELL(abcABC):=T 1.889726e+02=T 90.00000=T Traj:=T positionsangstrom=T Step:=T 0=T Bead:=T pbc="F F F"
C      -48.15940000     -34.54720000     -73.31620000
C      -47.05210000     -34.51670000     -74.17500000
C      -45.91400000     -35.33000000     -73.91920000
C      -45.90990000     -36.32710000     -72.92320000
C      -47.04200000     -36.43020000     -72.09490000
C      -48.08770000     -35.51510000     -72.32910000
H      -49.00210000     -33.88260000     -73.53700000
H      -45.09650000     -35.34830000     -74.63390000
H      -47.13840000     -37.20880000     -71.33900000
H      -49.02110000     -35.57390000     -71.65650000
C      -44.70470000     -37.17680000     -72.72090000
H      -44.29640000     -37.64400000     -73.57860000
H      -44.86260000     -38.05740000     -72.06810000
C      -46.87450000     -33.52670000     -75.28030000
H      -46.41210000     -33.92700000     -76.16150000
H      -47.82460000     -33.13850000     -75.59400000
S      -43.18150000     -36.19470000     -72.04330000
S      -45.92040000     -32.05090000     -74.82580000
C      -43.82980000     -35.27310000     -70.56080000
H      -44.82690000     -34.97400000     -70.55080000
H      -43.53680000     -35.76140000     -69.59260000
C      -46.46350000     -31.56220000     -73.07400000
H      -47.54310000     -31.76170000     -73.01900000
H      -46.43310000     -30.49360000     -72.95330000
C      -45.54850000     -32.25740000     -72.03290000
H      -45.89010000     -33.28210000     -71.84630000
H      -44.50330000     -32.15030000     -72.38100000
C      -43.12660000     -33.90840000     -70.56110000
H      -43.27220000     -33.42710000     -71.52040000
H      -42.04020000     -34.12360000     -70.43330000
C      -43.57980000     -33.03270000     -69.41800000
C      -43.12830000     -33.15100000     -68.11190000
C      -44.65910000     -32.08270000     -69.56320000
H      -42.47520000     -33.77230000     -67.64390000
C      -44.81790000     -31.31920000     -68.39770000
C      -45.58250000     -31.65720000     -70.63570000
C      -46.43550000     -30.72250000     -70.17100000
S      -43.78600000     -31.87530000     -67.10020000
S      -46.14030000     -30.17250000     -68.51650000
H      -47.16840000     -30.23810000     -70.74100000
