40
Properties=species:S:1:pos:R:3 #=T CELL(abcABC):=T 1.889726e+02=T 90.00000=T Traj:=T positionsangstrom=T Step:=T 0=T Bead:=T pbc="F F F"
C      -47.73940000     -32.05850000     -68.08410000
C      -47.36950000     -31.25890000     -69.14420000
C      -47.71150000     -31.61780000     -70.48670000
C      -48.46400000     -32.75470000     -70.73500000
C      -48.88810000     -33.51750000     -69.62450000
C      -48.48350000     -33.21450000     -68.36320000
H      -47.56950000     -31.75970000     -67.04310000
H      -47.37300000     -31.03730000     -71.35290000
H      -49.53900000     -34.39320000     -69.89940000
H      -48.82440000     -33.80950000     -67.56350000
C      -48.88190000     -33.20830000     -72.12090000
H      -49.27150000     -32.40960000     -72.80720000
H      -49.82760000     -33.87090000     -71.95590000
C      -46.52030000     -29.98200000     -69.02500000
H      -46.65490000     -29.17830000     -69.83180000
H      -46.84500000     -29.49540000     -68.11190000
S      -47.56560000     -34.06050000     -73.06080000
S      -44.73950000     -30.39480000     -68.77410000
C      -47.25830000     -35.48220000     -71.90950000
H      -48.08960000     -35.46640000     -71.25150000
H      -47.23270000     -36.37450000     -72.57300000
C      -44.17470000     -31.05370000     -70.42030000
H      -43.11430000     -30.87810000     -70.27260000
H      -44.45300000     -30.27320000     -71.19010000
C      -44.51550000     -32.42560000     -70.82350000
H      -44.81940000     -32.95380000     -69.92860000
H      -45.41450000     -32.39670000     -71.34750000
C      -45.87390000     -35.38080000     -71.16410000
H      -45.74330000     -36.22500000     -70.41750000
H      -45.83930000     -34.44630000     -70.53790000
C      -44.67700000     -35.40960000     -72.12930000
C      -44.32070000     -36.59910000     -72.80890000
C      -43.60040000     -34.47040000     -72.14800000
H      -44.97720000     -37.47550000     -73.14590000
C      -42.49480000     -34.83300000     -72.86810000
C      -43.44600000     -33.09730000     -71.61650000
C      -42.26740000     -32.53350000     -72.05120000
S      -42.75750000     -36.40770000     -73.64590000
S      -41.30010000     -33.61630000     -73.04850000
H      -41.77820000     -31.61880000     -71.74610000
