40
Properties=species:S:1:pos:R:3 #=T CELL(abcABC):=T 1.889726e+02=T 90.00000=T Traj:=T positionsangstrom=T Step:=T 0=T Bead:=T pbc="F F F"
C      -48.31810000     -34.60160000     -73.47060000
C      -47.06880000     -34.38130000     -74.09160000
C      -45.96050000     -35.17870000     -73.73810000
C      -46.06740000     -36.23950000     -72.85740000
C      -47.27650000     -36.46690000     -72.23280000
C      -48.36900000     -35.68500000     -72.59030000
H      -49.16510000     -33.98480000     -73.68210000
H      -45.06890000     -35.14770000     -74.39970000
H      -47.49040000     -37.39150000     -71.62050000
H      -49.34640000     -35.77420000     -72.18130000
C      -44.85140000     -37.11430000     -72.59430000
H      -44.51290000     -37.70160000     -73.51450000
H      -45.13390000     -37.77410000     -71.75080000
C      -46.88670000     -33.44740000     -75.18870000
H      -46.23710000     -33.88740000     -75.98630000
H      -47.86600000     -33.21310000     -75.65360000
S      -43.33280000     -36.18730000     -72.01180000
S      -45.96400000     -31.90080000     -74.72440000
C      -43.98030000     -35.24620000     -70.57820000
H      -45.05950000     -34.96940000     -70.80790000
H      -44.08270000     -35.91350000     -69.75440000
C      -46.45690000     -31.68650000     -72.94090000
H      -47.39500000     -32.20600000     -72.82460000
H      -46.64700000     -30.58850000     -72.83570000
C      -45.38360000     -32.29180000     -72.06030000
H      -45.43780000     -33.39230000     -72.03710000
H      -44.38670000     -32.22570000     -72.52380000
C      -42.98770000     -34.06930000     -70.44750000
H      -42.88540000     -33.68950000     -71.41790000
H      -42.06190000     -34.51120000     -70.22740000
C      -43.45230000     -33.11720000     -69.40040000
C      -42.85850000     -33.00230000     -68.15210000
C      -44.52080000     -32.16120000     -69.55170000
H      -41.96210000     -33.50930000     -67.72270000
C      -44.87090000     -31.46970000     -68.37130000
C      -45.35230000     -31.72220000     -70.70860000
C      -46.27310000     -30.81630000     -70.28760000
S      -43.67460000     -31.79880000     -67.11750000
S      -46.03760000     -30.22810000     -68.62070000
H      -46.98710000     -30.25780000     -70.94380000
