40
Properties=species:S:1:pos:R:3 #=T CELL(abcABC):=T 1.889726e+02=T 90.00000=T Traj:=T positionsangstrom=T Step:=T 0=T Bead:=T pbc="F F F"
C      -48.28590000     -34.66390000     -73.55390000
C      -47.01470000     -34.49540000     -74.18850000
C      -45.93900000     -35.37450000     -73.92700000
C      -46.13600000     -36.34720000     -72.92200000
C      -47.35590000     -36.42810000     -72.29900000
C      -48.47310000     -35.71300000     -72.64480000
H      -49.16940000     -34.13180000     -73.86530000
H      -45.00600000     -35.10520000     -74.43160000
H      -47.51700000     -37.10330000     -71.49070000
H      -49.40930000     -35.97690000     -72.23140000
C      -44.93300000     -37.22820000     -72.49000000
H      -44.58180000     -37.83470000     -73.32290000
H      -45.13280000     -37.95200000     -71.75770000
C      -46.97340000     -33.33160000     -75.18550000
H      -46.60780000     -33.69620000     -76.20630000
H      -47.91040000     -32.97440000     -75.32020000
S      -43.40210000     -36.24370000     -72.07830000
S      -45.82240000     -31.95060000     -74.84560000
C      -43.88630000     -35.21890000     -70.67680000
H      -44.89190000     -34.72980000     -70.82470000
H      -43.85280000     -35.70850000     -69.68780000
C      -46.10660000     -31.45890000     -73.10600000
H      -47.18840000     -31.47540000     -72.89180000
H      -45.75100000     -30.44150000     -72.96270000
C      -45.45980000     -32.26730000     -71.94560000
H      -45.97700000     -33.22520000     -71.84040000
H      -44.40190000     -32.41120000     -72.21190000
C      -42.91360000     -33.99790000     -70.48150000
H      -42.68610000     -33.36260000     -71.39110000
H      -41.90490000     -34.35410000     -70.04200000
C      -43.46470000     -33.02780000     -69.41810000
C      -43.00310000     -33.07620000     -68.07870000
C      -44.50970000     -32.06130000     -69.55850000
H      -42.30450000     -33.91140000     -67.73490000
C      -44.73540000     -31.32240000     -68.38530000
C      -45.41360000     -31.61230000     -70.55120000
C      -46.33640000     -30.68800000     -70.08060000
S      -43.71820000     -31.89230000     -67.04200000
S      -46.07220000     -30.21950000     -68.45450000
H      -47.17890000     -30.24460000     -70.63940000
