40
Properties=species:S:1:pos:R:3 #=T CELL(abcABC):=T 1.889726e+02=T 90.00000=T Traj:=T positionsangstrom=T Step:=T 0=T Bead:=T pbc="F F F"
C      -48.19000000     -34.07330000     -73.43980000
C      -46.98150000     -33.95160000     -74.17170000
C      -46.03610000     -34.95400000     -74.00470000
C      -46.29400000     -36.05980000     -73.22600000
C      -47.48810000     -36.16750000     -72.50440000
C      -48.41830000     -35.12670000     -72.53010000
H      -48.93340000     -33.20920000     -73.43830000
H      -45.13440000     -34.75100000     -74.58760000
H      -47.65610000     -37.06010000     -71.91230000
H      -49.39460000     -35.16390000     -72.00050000
C      -45.21890000     -37.13770000     -72.85050000
H      -44.61770000     -37.59340000     -73.70040000
H      -45.71640000     -37.98580000     -72.29040000
C      -46.76460000     -32.84360000     -75.11000000
H      -46.70820000     -33.20020000     -76.11410000
H      -47.67830000     -32.14230000     -75.16680000
S      -43.74570000     -36.55890000     -71.88940000
S      -45.11440000     -32.13490000     -74.85290000
C      -44.38550000     -35.33990000     -70.71710000
H      -45.23930000     -34.87150000     -71.19230000
H      -44.87940000     -35.86600000     -69.79610000
C      -45.13650000     -31.27160000     -73.19260000
H      -45.90890000     -30.52100000     -73.21950000
H      -44.18680000     -30.78130000     -73.07570000
C      -45.22630000     -32.28680000     -72.04450000
H      -46.07600000     -32.98100000     -72.28100000
H      -44.31850000     -32.89360000     -72.14660000
C      -43.27730000     -34.44620000     -70.11590000
H      -42.74800000     -33.94560000     -70.90500000
H      -42.62720000     -35.13080000     -69.62750000
C      -43.83410000     -33.50320000     -69.12060000
C      -43.53850000     -33.49920000     -67.80250000
C      -44.70240000     -32.38410000     -69.46890000
H      -42.79170000     -34.19140000     -67.37140000
C      -44.84870000     -31.58050000     -68.33600000
C      -45.28130000     -31.74600000     -70.65190000
C      -45.91630000     -30.56010000     -70.38950000
S      -44.15390000     -32.12260000     -66.85680000
S      -45.79190000     -30.08460000     -68.72020000
H      -46.37660000     -29.88330000     -71.05520000
