40
Properties=species:S:1:pos:R:3 #=T CELL(abcABC):=T 1.889726e+02=T 90.00000=T Traj:=T positionsangstrom=T Step:=T 0=T Bead:=T pbc="F F F"
C      -47.78990000     -30.99370000     -71.32450000
C      -47.83650000     -31.50730000     -69.99610000
C      -48.26100000     -32.85540000     -69.92180000
C      -48.64430000     -33.67640000     -71.01290000
C      -48.65410000     -33.01930000     -72.29920000
C      -48.15890000     -31.74000000     -72.45000000
H      -47.60530000     -29.97170000     -71.52100000
H      -48.23240000     -33.26960000     -68.91890000
H      -48.94280000     -33.58050000     -73.15680000
H      -48.11390000     -31.33890000     -73.49480000
C      -48.79870000     -35.16170000     -70.94130000
H      -49.68620000     -35.55280000     -71.50310000
H      -48.82890000     -35.60150000     -69.96310000
C      -47.29630000     -30.90210000     -68.65850000
H      -47.13060000     -29.87780000     -68.86700000
H      -47.93900000     -31.10360000     -67.88490000
S      -47.45180000     -36.11390000     -71.88860000
S      -45.70790000     -31.73260000     -68.06600000
C      -46.12050000     -36.03760000     -70.63610000
H      -46.55300000     -36.12480000     -69.63420000
H      -45.43680000     -36.96010000     -70.66190000
C      -44.67240000     -31.34130000     -69.57730000
H      -44.64540000     -30.22600000     -69.64720000
H      -45.18640000     -31.60350000     -70.43660000
C      -43.33010000     -32.09270000     -69.52850000
H      -42.48560000     -31.45650000     -69.25280000
H      -43.44690000     -33.00610000     -68.81920000
C      -45.26030000     -34.82760000     -70.64870000
H      -44.66350000     -34.77000000     -69.76010000
H      -45.95970000     -33.92600000     -70.54970000
C      -44.33480000     -34.64730000     -71.81580000
C      -44.25440000     -35.54450000     -72.88580000
C      -43.32220000     -33.64640000     -71.84780000
H      -44.89930000     -36.32400000     -73.17350000
C      -42.55970000     -33.77200000     -73.01590000
C      -42.87470000     -32.54820000     -70.96840000
C      -41.83870000     -31.83140000     -71.60720000
S      -43.02150000     -35.06450000     -74.08050000
S      -41.38550000     -32.54680000     -73.22140000
H      -41.23820000     -31.04420000     -71.17270000
