40
Properties=species:S:1:pos:R:3 #=T CELL(abcABC):=T 1.889726e+02=T 90.00000=T Traj:=T positionsangstrom=T Step:=T 0=T Bead:=T pbc="F F F"
C      -47.94570000     -30.87380000     -71.15360000
C      -47.87570000     -31.53130000     -69.94140000
C      -48.13440000     -32.91770000     -69.93830000
C      -48.49210000     -33.60740000     -71.13480000
C      -48.49820000     -32.90050000     -72.33830000
C      -48.12410000     -31.60620000     -72.29530000
H      -47.61720000     -29.88380000     -71.26310000
H      -48.09380000     -33.54380000     -69.02630000
H      -48.61920000     -33.39960000     -73.23060000
H      -48.01100000     -31.15040000     -73.25210000
C      -48.77560000     -35.10130000     -71.08150000
H      -49.67570000     -35.32480000     -71.62660000
H      -48.92590000     -35.35250000     -70.00230000
C      -47.29430000     -30.85410000     -68.67620000
H      -47.19940000     -29.70860000     -68.77860000
H      -47.85560000     -31.01320000     -67.70660000
S      -47.42110000     -36.03360000     -71.94380000
S      -45.73510000     -31.72700000     -68.28040000
C      -46.10070000     -36.19420000     -70.64230000
H      -46.56560000     -36.36410000     -69.71870000
H      -45.54980000     -37.13280000     -70.96960000
C      -44.67870000     -31.48580000     -69.69900000
H      -44.37160000     -30.41820000     -69.71800000
H      -45.30560000     -31.69220000     -70.65190000
C      -43.46030000     -32.40970000     -69.53500000
H      -42.85750000     -32.00870000     -68.73420000
H      -43.83210000     -33.27270000     -69.12550000
C      -45.22820000     -34.97370000     -70.48800000
H      -44.53930000     -35.21030000     -69.59680000
H      -45.79890000     -34.11590000     -70.32640000
C      -44.30520000     -34.71530000     -71.71680000
C      -44.26890000     -35.54860000     -72.83260000
C      -43.28160000     -33.73130000     -71.76510000
H      -44.91490000     -36.38940000     -72.96140000
C      -42.64880000     -33.63560000     -73.00780000
C      -42.81190000     -32.63040000     -70.89350000
C      -41.83940000     -31.83430000     -71.54160000
S      -43.14630000     -35.05690000     -74.07410000
S      -41.35630000     -32.44860000     -73.14770000
H      -41.23680000     -31.01200000     -71.12030000
