40
Properties=species:S:1:pos:R:3 #=T CELL(abcABC):=T 1.889726e+02=T 90.00000=T Traj:=T positionsangstrom=T Step:=T 0=T Bead:=T pbc="F F F"
C      -48.18420000     -33.68980000     -74.04570000
C      -46.88830000     -33.64960000     -74.58830000
C      -46.00400000     -34.70640000     -74.28260000
C      -46.42080000     -35.85910000     -73.59670000
C      -47.63930000     -35.74570000     -72.90270000
C      -48.56140000     -34.69900000     -73.16730000
H      -48.85400000     -32.92850000     -74.31710000
H      -45.02040000     -34.64850000     -74.77770000
H      -47.93800000     -36.50320000     -72.16200000
H      -49.54190000     -34.62810000     -72.65180000
C      -45.44370000     -37.02150000     -73.23290000
H      -45.14240000     -37.62200000     -74.11660000
H      -45.96610000     -37.67500000     -72.59690000
C      -46.30040000     -32.48410000     -75.27490000
H      -45.98070000     -32.66140000     -76.26620000
H      -47.00130000     -31.63880000     -75.32680000
S      -43.92720000     -36.45570000     -72.23290000
S      -44.68430000     -31.92800000     -74.43390000
C      -44.64780000     -35.28850000     -71.08080000
H      -45.27500000     -34.52250000     -71.54650000
H      -45.33930000     -35.84660000     -70.41820000
C      -45.40000000     -31.70350000     -72.77030000
H      -46.07560000     -32.53910000     -72.62910000
H      -45.97480000     -30.72820000     -72.85610000
C      -44.25360000     -31.58320000     -71.76870000
H      -43.61060000     -32.41130000     -71.85990000
H      -43.68600000     -30.73200000     -72.15900000
C      -43.56660000     -34.56620000     -70.27290000
H      -42.97930000     -33.88810000     -70.89460000
H      -42.83130000     -35.27540000     -69.88340000
C      -44.06230000     -33.74670000     -69.18120000
C      -44.24360000     -34.26400000     -67.91310000
C      -44.57320000     -32.42890000     -69.31300000
H      -43.86450000     -35.14200000     -67.53150000
C      -44.99360000     -31.92950000     -68.05960000
C      -44.74050000     -31.40460000     -70.34580000
C      -45.24340000     -30.24940000     -69.80380000
S      -44.74890000     -33.04590000     -66.76120000
S      -45.59830000     -30.29460000     -68.09140000
H      -45.48400000     -29.37180000     -70.41330000
