40
Properties=species:S:1:pos:R:3 #=T CELL(abcABC):=T 1.889726e+02=T 90.00000=T Traj:=T positionsangstrom=T Step:=T 0=T Bead:=T pbc="F F F"
C      -48.03370000     -33.58670000     -73.74750000
C      -46.81390000     -33.73000000     -74.43160000
C      -46.05560000     -34.94090000     -74.38180000
C      -46.43800000     -36.00070000     -73.52280000
C      -47.62750000     -35.79770000     -72.86630000
C      -48.41370000     -34.63090000     -72.92960000
H      -48.62200000     -32.65560000     -73.82920000
H      -45.06850000     -34.99650000     -74.78000000
H      -47.85700000     -36.58490000     -72.14420000
H      -49.31500000     -34.60660000     -72.31020000
C      -45.54080000     -37.16590000     -73.27490000
H      -45.14730000     -37.57000000     -74.24330000
H      -46.07180000     -37.97310000     -72.65740000
C      -46.23050000     -32.63150000     -75.27430000
H      -45.95050000     -33.09660000     -76.26690000
H      -47.00960000     -31.93200000     -75.41450000
S      -44.01270000     -36.56200000     -72.39390000
S      -44.71050000     -31.99470000     -74.46260000
C      -44.66920000     -35.17240000     -71.24450000
H      -44.96530000     -34.35360000     -71.86800000
H      -45.58920000     -35.57980000     -70.80180000
C      -45.26700000     -31.51300000     -72.77920000
H      -45.92500000     -32.24360000     -72.34140000
H      -45.81970000     -30.58060000     -72.76170000
C      -44.10480000     -31.41110000     -71.78900000
H      -43.49070000     -32.32720000     -71.82200000
H      -43.45800000     -30.55660000     -71.90140000
C      -43.62350000     -34.70320000     -70.26150000
H      -42.85120000     -34.19840000     -70.92780000
H      -43.09390000     -35.53930000     -69.81470000
C      -44.10830000     -33.75000000     -69.16070000
C      -44.09450000     -34.18770000     -67.86190000
C      -44.42940000     -32.32030000     -69.24680000
H      -43.77060000     -35.14210000     -67.47570000
C      -44.98460000     -31.84540000     -68.05610000
C      -44.68910000     -31.35110000     -70.31760000
C      -45.29570000     -30.20490000     -69.92860000
S      -44.82170000     -32.92210000     -66.72960000
S      -45.72390000     -30.25670000     -68.14580000
H      -45.59010000     -29.38010000     -70.54840000
