40
Properties=species:S:1:pos:R:3 #=T CELL(abcABC):=T 1.889726e+02=T 90.00000=T Traj:=T positionsangstrom=T Step:=T 0=T Bead:=T pbc="F F F"
C      -47.66790000     -31.14270000     -69.85130000
C      -46.48350000     -31.33900000     -69.07180000
C      -45.25210000     -30.76300000     -69.49740000
C      -45.13940000     -30.06740000     -70.67430000
C      -46.30470000     -29.85680000     -71.40210000
C      -47.54550000     -30.36500000     -70.99840000
H      -48.64340000     -31.47800000     -69.50810000
H      -44.31310000     -30.95150000     -68.82010000
H      -46.24240000     -29.30590000     -72.33350000
H      -48.54820000     -29.97270000     -71.41270000
C      -43.82500000     -29.54320000     -71.11920000
H      -43.38300000     -28.88120000     -70.31880000
H      -43.93620000     -28.98550000     -72.04170000
C      -46.54450000     -32.00760000     -67.64330000
H      -46.16860000     -31.33440000     -66.86750000
H      -47.53740000     -32.35990000     -67.50830000
S      -42.62170000     -30.87780000     -71.50820000
S      -45.47490000     -33.49020000     -67.42910000
C      -43.80780000     -32.07810000     -72.24700000
H      -44.63280000     -32.35340000     -71.55140000
H      -44.27410000     -31.71620000     -73.18400000
C      -46.02490000     -34.69340000     -68.73160000
H      -47.14740000     -34.73990000     -68.67060000
H      -45.66390000     -35.64170000     -68.38110000
C      -45.51940000     -34.27840000     -70.15160000
H      -45.87240000     -33.19940000     -70.25460000
H      -44.45290000     -34.19170000     -70.08620000
C      -43.10220000     -33.37210000     -72.57960000
H      -42.57590000     -33.77800000     -71.71720000
H      -42.21870000     -33.26830000     -73.22670000
C      -44.09530000     -34.38490000     -73.21080000
C      -43.75650000     -34.91520000     -74.44000000
C      -45.19310000     -35.15150000     -72.59430000
H      -42.91930000     -34.66540000     -75.09250000
C      -45.67580000     -36.14660000     -73.42900000
C      -45.92000000     -35.16950000     -71.34640000
C      -46.95310000     -36.09840000     -71.25700000
S      -44.82670000     -36.24690000     -75.01070000
S      -47.05880000     -37.02560000     -72.79980000
H      -47.54470000     -36.34170000     -70.41050000
