40
Properties=species:S:1:pos:R:3 #=T CELL(abcABC):=T 1.889726e+02=T 90.00000=T Traj:=T positionsangstrom=T Step:=T 0=T Bead:=T pbc="F F F"
C      -48.00580000     -31.71950000     -69.62110000
C      -46.78390000     -31.67070000     -68.91530000
C      -45.77600000     -30.85990000     -69.50780000
C      -45.93120000     -30.27640000     -70.76350000
C      -47.14280000     -30.46340000     -71.47480000
C      -48.21290000     -31.12470000     -70.88750000
H      -48.77440000     -32.35380000     -69.21810000
H      -44.69990000     -30.88780000     -69.09950000
H      -47.26690000     -30.03180000     -72.44310000
H      -49.09680000     -31.35010000     -71.45470000
C      -44.81000000     -29.48730000     -71.41770000
H      -44.62610000     -28.53850000     -70.97730000
H      -44.92880000     -29.25100000     -72.46530000
C      -46.62170000     -32.34770000     -67.61840000
H      -46.32620000     -31.73590000     -66.76910000
H      -47.55990000     -32.86600000     -67.29560000
S      -43.11590000     -30.46600000     -71.32210000
S      -45.36370000     -33.67060000     -67.43640000
C      -43.45210000     -31.88040000     -72.50640000
H      -44.50740000     -31.87130000     -72.68080000
H      -42.97790000     -31.72470000     -73.51940000
C      -45.96210000     -34.96610000     -68.67300000
H      -47.04100000     -34.95410000     -68.65650000
H      -45.65550000     -35.94880000     -68.29140000
C      -45.22670000     -34.69460000     -70.03600000
H      -45.30550000     -33.59260000     -70.13290000
H      -44.15080000     -34.87180000     -69.85720000
C      -42.89810000     -33.25340000     -72.03080000
H      -43.09070000     -33.32360000     -70.95290000
H      -41.76410000     -33.29260000     -72.16840000
C      -43.52860000     -34.39150000     -72.88020000
C      -43.18740000     -34.56630000     -74.18840000
C      -44.81940000     -35.03170000     -72.54600000
H      -42.25430000     -34.20960000     -74.63990000
C      -45.31660000     -35.74280000     -73.62800000
C      -45.58040000     -35.29140000     -71.33390000
C      -46.64460000     -36.12240000     -71.57790000
S      -44.17290000     -35.88360000     -74.94200000
S      -46.88040000     -36.54480000     -73.28340000
H      -47.35710000     -36.57550000     -70.85380000
