40
Properties=species:S:1:pos:R:3 #=T CELL(abcABC):=T 1.889726e+02=T 90.00000=T Traj:=T positionsangstrom=T Step:=T 0=T Bead:=T pbc="F F F"
C      -48.13700000     -31.93630000     -69.62160000
C      -46.91660000     -31.83830000     -68.91460000
C      -45.84580000     -31.14820000     -69.45920000
C      -45.95500000     -30.48630000     -70.66020000
C      -47.18080000     -30.53530000     -71.32540000
C      -48.21320000     -31.32510000     -70.83730000
H      -49.04580000     -32.24030000     -69.06580000
H      -44.86430000     -30.98520000     -68.82900000
H      -47.11690000     -29.84130000     -72.19970000
H      -49.07890000     -31.42820000     -71.44200000
C      -44.82650000     -29.64050000     -71.15510000
H      -44.66860000     -28.80300000     -70.41900000
H      -45.11050000     -29.21730000     -72.13440000
C      -46.77940000     -32.41460000     -67.50480000
H      -46.38610000     -31.66610000     -66.82440000
H      -47.72370000     -32.82160000     -67.19700000
S      -43.20080000     -30.39420000     -71.34130000
S      -45.41320000     -33.65180000     -67.53740000
C      -43.63880000     -31.79990000     -72.51360000
H      -44.71630000     -31.98770000     -72.36660000
H      -43.53040000     -31.71430000     -73.60680000
C      -45.96170000     -34.75460000     -68.92210000
H      -47.03840000     -34.65010000     -68.96850000
H      -45.72040000     -35.80440000     -68.64800000
C      -45.21700000     -34.34800000     -70.19710000
H      -45.28880000     -33.29620000     -70.47300000
H      -44.18490000     -34.47490000     -70.08740000
C      -42.88120000     -33.07370000     -72.00190000
H      -43.14610000     -33.26910000     -70.95310000
H      -41.82250000     -32.91760000     -72.10610000
C      -43.47130000     -34.34300000     -72.81760000
C      -43.05420000     -34.55480000     -74.09730000
C      -44.76380000     -35.05520000     -72.57290000
H      -42.11270000     -34.32470000     -74.58850000
C      -45.16530000     -35.87950000     -73.63760000
C      -45.68640000     -35.09220000     -71.43870000
C      -46.75470000     -35.91300000     -71.70770000
S      -44.04440000     -35.70610000     -74.97410000
S      -46.61390000     -36.77790000     -73.23150000
H      -47.58510000     -36.09570000     -71.02380000
