40
Properties=species:S:1:pos:R:3 #=T CELL(abcABC):=T 1.889726e+02=T 90.00000=T Traj:=T positionsangstrom=T Step:=T 0=T Bead:=T pbc="F F F"
C      -47.58460000     -31.52410000     -69.66570000
C      -46.56300000     -31.34340000     -68.75510000
C      -45.38730000     -30.71860000     -69.16620000
C      -45.27110000     -30.11400000     -70.46130000
C      -46.36350000     -30.23790000     -71.36180000
C      -47.50840000     -30.92290000     -70.93570000
H      -48.52360000     -32.01940000     -69.39170000
H      -44.40310000     -30.66930000     -68.53020000
H      -46.37910000     -29.83390000     -72.39990000
H      -48.54760000     -30.94020000     -71.53820000
C      -43.93040000     -29.55710000     -70.91010000
H      -43.35390000     -29.25170000     -70.04960000
H      -43.97780000     -28.66320000     -71.51250000
C      -46.57360000     -32.02620000     -67.44300000
H      -46.05950000     -31.30960000     -66.82480000
H      -47.53560000     -32.38870000     -67.04860000
S      -42.80870000     -30.86030000     -71.55170000
S      -45.57150000     -33.58380000     -67.37050000
C      -43.57420000     -32.08880000     -72.71250000
H      -44.68220000     -32.09040000     -72.63660000
H      -43.41190000     -31.72810000     -73.77630000
C      -46.25830000     -34.35950000     -68.94050000
H      -47.11490000     -33.79310000     -69.23870000
H      -46.68250000     -35.34040000     -68.59420000
C      -45.27850000     -34.33630000     -70.11840000
H      -45.14620000     -33.32710000     -70.41780000
H      -44.25140000     -34.66870000     -69.80650000
C      -43.07420000     -33.47200000     -72.40540000
H      -43.26570000     -33.66030000     -71.35000000
H      -42.03500000     -33.52250000     -72.66190000
C      -43.83130000     -34.55570000     -73.15700000
C      -43.65770000     -34.87670000     -74.49380000
C      -44.99920000     -35.22590000     -72.60980000
H      -42.90480000     -34.43770000     -75.14360000
C      -45.61510000     -35.99170000     -73.57890000
C      -45.72970000     -35.11750000     -71.39570000
C      -46.86960000     -35.91200000     -71.44070000
S      -44.80000000     -36.05910000     -75.10990000
S      -47.08090000     -36.74940000     -72.96350000
H      -47.75430000     -35.85290000     -70.84250000
