40
Properties=species:S:1:pos:R:3 #=T CELL(abcABC):=T 1.889726e+02=T 90.00000=T Traj:=T positionsangstrom=T Step:=T 0=T Bead:=T pbc="F F F"
C      -47.64950000     -30.77650000     -69.71770000
C      -46.48610000     -31.17660000     -69.05470000
C      -45.25570000     -30.74510000     -69.55910000
C      -45.15770000     -29.90200000     -70.69010000
C      -46.28890000     -29.56220000     -71.36750000
C      -47.52450000     -29.94620000     -70.87060000
H      -48.59280000     -31.18700000     -69.50700000
H      -44.34310000     -30.86940000     -68.99730000
H      -46.26630000     -29.03030000     -72.31720000
H      -48.42230000     -29.77400000     -71.46790000
C      -43.82420000     -29.59120000     -71.18780000
H      -43.24110000     -28.82250000     -70.69720000
H      -43.94170000     -29.09770000     -72.15200000
C      -46.67610000     -32.08310000     -67.83300000
H      -46.50530000     -31.48090000     -66.93040000
H      -47.78080000     -32.46190000     -67.82340000
S      -42.74120000     -31.04670000     -71.41090000
S      -45.52000000     -33.46220000     -67.50860000
C      -43.74210000     -32.21740000     -72.40630000
H      -44.74940000     -32.29750000     -71.95810000
H      -43.90370000     -31.76380000     -73.41970000
C      -45.99050000     -34.60890000     -68.87450000
H      -47.04330000     -34.74080000     -68.78760000
H      -45.50160000     -35.58450000     -68.69930000
C      -45.52110000     -34.12200000     -70.25000000
H      -46.05850000     -33.26650000     -70.58470000
H      -44.42030000     -33.85970000     -70.22860000
C      -43.06970000     -33.60310000     -72.51050000
H      -42.86750000     -33.97620000     -71.53810000
H      -42.14100000     -33.48230000     -73.06570000
C      -43.91960000     -34.63210000     -73.16760000
C      -43.83440000     -34.96030000     -74.49840000
C      -45.05520000     -35.27770000     -72.54950000
H      -43.05520000     -34.64640000     -75.18250000
C      -45.57470000     -36.33090000     -73.33150000
C      -45.81790000     -35.17210000     -71.28610000
C      -46.81980000     -36.14740000     -71.27350000
S      -44.95160000     -36.24840000     -75.00560000
S      -46.98960000     -37.09540000     -72.67840000
H      -47.41690000     -36.24350000     -70.42970000
