40
Properties=species:S:1:pos:R:3 #=T CELL(abcABC):=T 1.889726e+02=T 90.00000=T Traj:=T positionsangstrom=T Step:=T 0=T Bead:=T pbc="F F F"
C      -47.53920000     -30.40850000     -69.93270000
C      -46.48880000     -30.86660000     -69.16350000
C      -45.21740000     -30.68640000     -69.66750000
C      -44.90680000     -30.08130000     -70.89770000
C      -46.02320000     -29.75090000     -71.73780000
C      -47.29410000     -29.95110000     -71.21700000
H      -48.56510000     -30.39420000     -69.56280000
H      -44.36330000     -30.99820000     -69.02640000
H      -45.96710000     -29.45770000     -72.72360000
H      -48.16960000     -29.80790000     -71.80180000
C      -43.40100000     -29.75590000     -71.29050000
H      -42.86130000     -29.27400000     -70.50000000
H      -43.43390000     -29.11530000     -72.14520000
C      -46.73670000     -31.56100000     -67.89790000
H      -46.46490000     -31.00040000     -66.96250000
H      -47.90660000     -31.65950000     -67.86410000
S      -42.45880000     -31.32510000     -71.49420000
S      -45.90850000     -33.18990000     -67.55990000
C      -43.56420000     -32.48950000     -72.39340000
H      -44.68500000     -32.25760000     -72.13220000
H      -43.52210000     -32.16260000     -73.41920000
C      -46.46100000     -34.22840000     -68.96500000
H      -47.35120000     -33.76260000     -69.44900000
H      -46.69390000     -35.17630000     -68.59490000
C      -45.37410000     -34.40420000     -70.00240000
H      -45.04450000     -33.42480000     -70.47050000
H      -44.52750000     -34.87670000     -69.47480000
C      -43.00300000     -33.89140000     -72.24310000
H      -42.99550000     -34.09650000     -71.17350000
H      -41.94830000     -33.82550000     -72.64730000
C      -43.89780000     -34.83740000     -72.91280000
C      -43.66610000     -35.33140000     -74.13510000
C      -45.14240000     -35.31450000     -72.40720000
H      -42.92640000     -35.06340000     -74.90270000
C      -45.83060000     -36.08600000     -73.30560000
C      -45.81170000     -35.33620000     -71.12120000
C      -46.96840000     -36.10440000     -71.14950000
S      -44.92910000     -36.43200000     -74.83010000
S      -47.26870000     -36.82280000     -72.73200000
H      -47.79230000     -36.12700000     -70.39760000
