40
Properties=species:S:1:pos:R:3 #=T CELL(abcABC):=T 1.889726e+02=T 90.00000=T Traj:=T positionsangstrom=T Step:=T 0=T Bead:=T pbc="F F F"
C      -47.61660000     -30.42630000     -69.96110000
C      -46.52320000     -30.87600000     -69.17760000
C      -45.22440000     -30.68380000     -69.55480000
C      -45.01520000     -29.94460000     -70.78350000
C      -46.09290000     -29.37450000     -71.49850000
C      -47.39850000     -29.64390000     -71.06560000
H      -48.56950000     -30.83140000     -69.71110000
H      -44.32920000     -31.20980000     -69.11100000
H      -45.87430000     -28.79210000     -72.37620000
H      -48.26500000     -29.22270000     -71.61400000
C      -43.64600000     -29.76970000     -71.34780000
H      -43.10450000     -29.01370000     -70.73610000
H      -43.67500000     -29.39860000     -72.30740000
C      -46.87100000     -31.70760000     -68.02350000
H      -46.65990000     -31.11420000     -67.15070000
H      -47.93650000     -31.88070000     -67.95020000
S      -42.71270000     -31.34970000     -71.27990000
S      -45.77310000     -33.10270000     -67.60910000
C      -43.71250000     -32.36920000     -72.39990000
H      -44.74000000     -32.49350000     -71.98350000
H      -43.75980000     -31.92280000     -73.42540000
C      -46.30500000     -34.26280000     -68.95880000
H      -47.32810000     -33.92060000     -69.36650000
H      -46.54010000     -35.23070000     -68.49610000
C      -45.26950000     -34.45520000     -70.06000000
H      -45.06130000     -33.43280000     -70.33860000
H      -44.27640000     -34.83440000     -69.73030000
C      -43.00790000     -33.76300000     -72.59040000
H      -42.52090000     -34.09890000     -71.70630000
H      -42.21310000     -33.44310000     -73.32180000
C      -43.94720000     -34.79180000     -73.19940000
C      -43.82260000     -35.18920000     -74.48860000
C      -44.96020000     -35.52430000     -72.42210000
H      -43.13690000     -34.73000000     -75.17950000
C      -45.65980000     -36.35820000     -73.29470000
C      -45.67390000     -35.33450000     -71.18740000
C      -46.79570000     -36.14200000     -71.12210000
S      -44.98500000     -36.39660000     -74.92470000
S      -47.00330000     -37.12220000     -72.49220000
H      -47.54660000     -36.08380000     -70.32570000
