40
Properties=species:S:1:pos:R:3 #=T CELL(abcABC):=T 1.889726e+02=T 90.00000=T Traj:=T positionsangstrom=T Step:=T 0=T Bead:=T pbc="F F F"
C      -47.71910000     -30.36960000     -69.85490000
C      -46.63960000     -30.92710000     -69.12020000
C      -45.35290000     -30.75050000     -69.59460000
C      -45.11490000     -29.96840000     -70.71250000
C      -46.19550000     -29.33780000     -71.46690000
C      -47.47110000     -29.63930000     -71.06090000
H      -48.74640000     -30.49940000     -69.41820000
H      -44.53330000     -31.05390000     -68.93930000
H      -45.90520000     -28.72460000     -72.33110000
H      -48.26200000     -29.23120000     -71.62330000
C      -43.65970000     -29.69460000     -71.09510000
H      -43.13090000     -29.09810000     -70.26560000
H      -43.56990000     -29.03670000     -71.97290000
C      -46.81550000     -31.76350000     -67.87240000
H      -46.93160000     -31.18330000     -66.86260000
H      -47.71730000     -32.34570000     -68.10420000
S      -42.64080000     -31.30250000     -71.20720000
S      -45.60350000     -33.23950000     -67.56420000
C      -43.58290000     -32.18600000     -72.58850000
H      -44.61150000     -32.11580000     -72.30890000
H      -43.38870000     -31.68630000     -73.54860000
C      -46.14870000     -34.45380000     -68.93660000
H      -47.17080000     -34.28430000     -69.16290000
H      -46.05480000     -35.34330000     -68.36500000
C      -45.31480000     -34.30830000     -70.19500000
H      -45.41340000     -33.23630000     -70.59470000
H      -44.27780000     -34.42760000     -69.92980000
C      -43.16640000     -33.62680000     -72.65220000
H      -43.02300000     -33.95560000     -71.60310000
H      -42.15850000     -33.76810000     -72.98660000
C      -44.06420000     -34.71970000     -73.30320000
C      -43.83900000     -35.20920000     -74.55050000
C      -45.08010000     -35.43760000     -72.56210000
H      -43.04500000     -34.84180000     -75.17860000
C      -45.73790000     -36.29210000     -73.42410000
C      -45.68850000     -35.30730000     -71.24000000
C      -46.69590000     -36.22040000     -71.07400000
S      -44.96910000     -36.45190000     -74.98480000
S      -46.99250000     -37.14230000     -72.53420000
H      -47.26210000     -36.39460000     -70.12770000
