40
Properties=species:S:1:pos:R:3 #=T CELL(abcABC):=T 1.889726e+02=T 90.00000=T Traj:=T positionsangstrom=T Step:=T 0=T Bead:=T pbc="F F F"
C      -47.36010000     -30.92590000     -69.81980000
C      -46.28510000     -30.98480000     -68.90960000
C      -45.00820000     -30.49460000     -69.37040000
C      -44.77070000     -30.16200000     -70.69440000
C      -45.82190000     -30.25600000     -71.59040000
C      -47.12400000     -30.62500000     -71.19480000
H      -48.36640000     -31.26230000     -69.42410000
H      -44.20860000     -30.52510000     -68.65820000
H      -45.83230000     -29.78350000     -72.63700000
H      -48.01180000     -30.63880000     -71.86040000
C      -43.43950000     -29.72960000     -71.12840000
H      -43.02290000     -29.07960000     -70.37280000
H      -43.44510000     -29.20380000     -72.17500000
C      -46.61250000     -31.68400000     -67.58300000
H      -45.94300000     -31.20760000     -66.87430000
H      -47.62730000     -31.63600000     -67.30050000
S      -42.30380000     -31.20250000     -71.45560000
S      -46.00470000     -33.39510000     -67.54490000
C      -43.39530000     -32.34310000     -72.42210000
H      -44.37470000     -32.19090000     -71.96470000
H      -43.54060000     -31.90500000     -73.41260000
C      -46.70300000     -34.12210000     -68.99960000
H      -47.75080000     -33.72810000     -69.12930000
H      -46.91860000     -35.20140000     -68.95320000
C      -45.89770000     -33.89980000     -70.31800000
H      -46.05320000     -32.80230000     -70.62460000
H      -44.82350000     -33.93860000     -70.11040000
C      -42.95240000     -33.79580000     -72.32500000
H      -42.78080000     -33.92270000     -71.28770000
H      -42.03210000     -33.97400000     -72.87330000
C      -43.88450000     -34.89740000     -72.95050000
C      -43.62210000     -35.44480000     -74.19840000
C      -45.25180000     -35.20980000     -72.50490000
H      -42.74380000     -35.19160000     -74.79000000
C      -45.71150000     -36.22600000     -73.31470000
C      -46.15980000     -34.84440000     -71.43520000
C      -47.33250000     -35.50560000     -71.57530000
S      -44.87680000     -36.52990000     -74.73180000
S      -47.36790000     -36.63920000     -72.92320000
H      -48.04870000     -35.60550000     -70.80510000
