40
Properties=species:S:1:pos:R:3 #=T CELL(abcABC):=T 1.889726e+02=T 90.00000=T Traj:=T positionsangstrom=T Step:=T 0=T Bead:=T pbc="F F F"
C      -42.61020000     -33.19830000     -74.06420000
C      -43.16820000     -34.34410000     -73.54580000
C      -44.58470000     -34.59120000     -73.73020000
C      -45.34700000     -33.72580000     -74.52910000
C      -44.68000000     -32.60120000     -75.10930000
C      -43.41210000     -32.29390000     -74.82950000
H      -41.59380000     -33.02270000     -73.71440000
H      -45.17990000     -35.46580000     -73.34070000
H      -45.28320000     -32.10520000     -75.92530000
H      -42.94720000     -31.29670000     -75.07710000
C      -46.79100000     -34.01360000     -74.80630000
H      -47.18220000     -34.84200000     -74.25050000
H      -47.06560000     -34.19470000     -75.90580000
C      -42.34920000     -35.39070000     -72.81510000
H      -41.86690000     -35.98170000     -73.63300000
H      -41.57230000     -34.88230000     -72.28620000
S      -47.77570000     -32.43350000     -74.35670000
S      -43.31030000     -36.59150000     -71.85720000
C      -47.83330000     -32.27220000     -72.49230000
H      -48.25660000     -31.25500000     -72.30540000
H      -48.53310000     -33.08170000     -72.25290000
C      -44.13880000     -35.65680000     -70.46710000
H      -43.87330000     -35.96250000     -69.51090000
H      -45.20910000     -35.79240000     -70.67020000
C      -43.74300000     -34.13760000     -70.41360000
H      -42.72980000     -33.98400000     -70.39950000
H      -44.13900000     -33.53520000     -71.24390000
C      -46.50190000     -32.50760000     -71.77880000
H      -45.70200000     -31.88470000     -72.24860000
H      -46.13060000     -33.54270000     -72.07800000
C      -46.53230000     -32.24540000     -70.33470000
C      -47.57840000     -31.53050000     -69.79420000
C      -45.70590000     -32.74340000     -69.23780000
H      -48.34280000     -31.03930000     -70.39880000
C      -46.06330000     -32.29240000     -67.97250000
C      -44.44090000     -33.57040000     -69.19520000
C      -44.06020000     -33.76270000     -67.88360000
S      -47.55660000     -31.42110000     -68.06230000
S      -45.04180000     -32.91090000     -66.70640000
H      -43.15030000     -34.30950000     -67.57450000
