40
Properties=species:S:1:pos:R:3 #=T CELL(abcABC):=T 1.889726e+02=T 90.00000=T Traj:=T positionsangstrom=T Step:=T 0=T Bead:=T pbc="F F F"
C      -46.47390000     -36.32960000     -73.58300000
C      -46.39130000     -36.30680000     -72.20730000
C      -45.10500000     -36.16030000     -71.62770000
C      -43.93090000     -36.08600000     -72.32730000
C      -44.05830000     -36.06030000     -73.75920000
C      -45.30200000     -36.12170000     -74.33320000
H      -47.42960000     -36.44150000     -74.05310000
H      -45.06610000     -36.10750000     -70.54250000
H      -43.18840000     -36.01150000     -74.34890000
H      -45.34160000     -35.92560000     -75.34930000
C      -42.55220000     -36.06360000     -71.67080000
H      -41.77170000     -36.41700000     -72.37260000
H      -42.47130000     -36.68450000     -70.79260000
C      -47.75080000     -36.42140000     -71.41510000
H      -48.11230000     -37.42560000     -71.57060000
H      -47.60240000     -36.22360000     -70.36850000
S      -42.09000000     -34.31300000     -71.18650000
S      -49.00650000     -35.20260000     -71.96370000
C      -42.45170000     -33.25500000     -72.67680000
H      -41.68090000     -32.47440000     -72.66710000
H      -42.21970000     -33.74360000     -73.62520000
C      -48.61710000     -33.59770000     -71.01590000
H      -48.58280000     -33.85740000     -70.04580000
H      -49.46970000     -32.86740000     -71.20300000
C      -47.28840000     -32.97550000     -71.51050000
H      -46.46780000     -33.78820000     -71.36810000
H      -47.54490000     -32.69830000     -72.55530000
C      -43.93290000     -32.72590000     -72.57570000
H      -44.67680000     -33.54130000     -72.64330000
H      -44.08970000     -32.17140000     -73.51140000
C      -44.16160000     -31.77060000     -71.43030000
C      -43.00270000     -31.18940000     -70.84300000
C      -45.40870000     -31.36670000     -70.74440000
H      -41.97810000     -31.27970000     -71.21360000
C      -45.14110000     -30.41640000     -69.75250000
C      -46.84220000     -31.78680000     -70.75550000
C      -47.54140000     -31.15320000     -69.76250000
S      -43.40700000     -30.07690000     -69.56150000
S      -46.54230000     -30.02630000     -68.80760000
H      -48.60500000     -31.28320000     -69.53140000
