40
Properties=species:S:1:pos:R:3 #=T CELL(abcABC):=T 1.889726e+02=T 90.00000=T Traj:=T positionsangstrom=T Step:=T 0=T Bead:=T pbc="F F F"
C      -46.43980000     -36.31660000     -73.52380000
C      -46.38590000     -36.17380000     -72.10070000
C      -45.13050000     -36.16200000     -71.55170000
C      -43.87950000     -36.15730000     -72.27380000
C      -43.99460000     -36.21180000     -73.62650000
C      -45.27290000     -36.29960000     -74.26390000
H      -47.39150000     -36.51200000     -74.06090000
H      -45.05260000     -36.06120000     -70.46020000
H      -43.18360000     -36.19960000     -74.35910000
H      -45.23490000     -36.46580000     -75.33960000
C      -42.58790000     -35.95690000     -71.52930000
H      -41.84360000     -36.75290000     -71.73930000
H      -42.82230000     -36.10800000     -70.48350000
C      -47.60520000     -36.21090000     -71.20830000
H      -47.89670000     -37.27900000     -71.02460000
H      -47.42300000     -35.91160000     -70.13000000
S      -41.77470000     -34.24850000     -71.52700000
S      -49.04090000     -35.19600000     -71.83730000
C      -42.63040000     -33.29190000     -72.82410000
H      -41.99060000     -32.49830000     -73.17010000
H      -42.84030000     -34.02700000     -73.62200000
C      -48.53300000     -33.58070000     -71.16220000
H      -48.39760000     -33.84270000     -70.07550000
H      -49.35680000     -32.81750000     -71.09900000
C      -47.29750000     -32.91990000     -71.74340000
H      -46.48320000     -33.60970000     -72.01910000
H      -47.33800000     -32.52300000     -72.68180000
C      -44.06180000     -32.73250000     -72.54140000
H      -44.73100000     -33.50190000     -72.37390000
H      -44.42730000     -32.14090000     -73.38460000
C      -44.11280000     -31.88880000     -71.28050000
C      -43.02940000     -31.12350000     -70.70690000
C      -45.34400000     -31.55230000     -70.65250000
H      -41.96680000     -31.12480000     -71.02060000
C      -45.17840000     -30.58410000     -69.61530000
C      -46.75940000     -31.88540000     -70.80410000
C      -47.58410000     -31.08310000     -69.96900000
S      -43.54460000     -30.12400000     -69.39270000
S      -46.71110000     -29.94150000     -69.00850000
H      -48.59920000     -30.92310000     -70.18730000
