40
Properties=species:S:1:pos:R:3 #=T CELL(abcABC):=T 1.889726e+02=T 90.00000=T Traj:=T positionsangstrom=T Step:=T 0=T Bead:=T pbc="F F F"
C      -46.03880000     -37.24080000     -73.12630000
C      -46.26380000     -36.61230000     -71.87560000
C      -45.09970000     -36.08240000     -71.26650000
C      -43.82890000     -36.05090000     -71.83090000
C      -43.64410000     -36.64520000     -73.09070000
C      -44.73240000     -37.27710000     -73.69770000
H      -46.90560000     -37.66550000     -73.69560000
H      -45.20120000     -35.56640000     -70.32100000
H      -42.69310000     -36.82300000     -73.58130000
H      -44.56380000     -37.80770000     -74.67280000
C      -42.68520000     -35.32000000     -71.20780000
H      -41.92160000     -36.08850000     -70.95600000
H      -43.01250000     -34.79100000     -70.30280000
C      -47.58280000     -36.63230000     -71.31360000
H      -48.09870000     -37.47790000     -71.66830000
H      -47.48540000     -36.73390000     -70.18600000
S      -41.88560000     -34.06100000     -72.27210000
S      -48.70080000     -35.21370000     -71.77860000
C      -43.20110000     -33.25180000     -73.31150000
H      -42.68980000     -32.32270000     -73.74890000
H      -43.35990000     -33.94040000     -74.15230000
C      -48.16010000     -33.77490000     -70.70900000
H      -47.42990000     -34.21390000     -69.93520000
H      -49.01060000     -33.54870000     -70.07430000
C      -47.71130000     -32.57470000     -71.50400000
H      -47.03100000     -32.86340000     -72.35720000
H      -48.58520000     -32.14090000     -71.92490000
C      -44.49650000     -32.71030000     -72.76620000
H      -45.19000000     -33.49860000     -72.44870000
H      -45.04680000     -32.21370000     -73.55880000
C      -44.49350000     -31.68580000     -71.56880000
C      -43.32890000     -31.16210000     -71.14930000
C      -45.59120000     -31.27300000     -70.73330000
H      -42.39630000     -31.50820000     -71.49940000
C      -45.23110000     -30.26250000     -69.87360000
C      -47.01840000     -31.55860000     -70.68770000
C      -47.67650000     -30.85590000     -69.71470000
S      -43.45010000     -30.09970000     -69.71260000
S      -46.60210000     -29.76310000     -68.81270000
H      -48.71960000     -30.93980000     -69.60140000
