40
Properties=species:S:1:pos:R:3 #=T CELL(abcABC):=T 1.889726e+02=T 90.00000=T Traj:=T positionsangstrom=T Step:=T 0=T Bead:=T pbc="F F F"
C      -46.85530000     -31.90000000     -72.77560000
C      -46.39170000     -32.85280000     -73.80880000
C      -46.77960000     -34.17810000     -73.72700000
C      -47.73200000     -34.64630000     -72.82050000
C      -48.21430000     -33.73110000     -71.84430000
C      -47.59410000     -32.41110000     -71.75980000
H      -46.43820000     -30.94080000     -72.69510000
H      -46.47310000     -34.92790000     -74.39610000
H      -48.82710000     -33.91070000     -70.98340000
H      -47.76340000     -31.86570000     -70.81980000
C      -48.05430000     -36.11650000     -72.84060000
H      -48.12710000     -36.42720000     -73.86960000
H      -49.02110000     -36.29580000     -72.35100000
C      -45.64090000     -32.32960000     -75.01660000
H      -46.06230000     -32.76390000     -75.93600000
H      -45.74610000     -31.29420000     -74.99730000
S      -46.68890000     -37.06710000     -71.84450000
S      -43.78800000     -32.72410000     -75.04810000
C      -46.46360000     -36.11420000     -70.30830000
H      -47.28700000     -35.46120000     -70.13920000
H      -46.51220000     -36.87480000     -69.53070000
C      -43.46290000     -32.00070000     -73.28850000
H      -43.97560000     -31.12730000     -73.23180000
H      -42.39540000     -31.71590000     -73.23420000
C      -43.67960000     -33.01730000     -72.24820000
H      -44.58050000     -33.60600000     -72.43680000
H      -42.86050000     -33.66690000     -72.16950000
C      -45.18680000     -35.32420000     -70.31080000
H      -45.08800000     -35.02280000     -71.39590000
H      -44.29730000     -35.91080000     -70.24780000
C      -45.06980000     -34.06740000     -69.43130000
C      -45.52600000     -34.10590000     -68.13800000
C      -44.30150000     -32.94570000     -69.71940000
H      -46.13000000     -34.88530000     -67.66500000
C      -44.01830000     -32.15590000     -68.56880000
C      -43.72010000     -32.32490000     -70.93060000
C      -43.06790000     -31.09560000     -70.63050000
S      -44.93170000     -32.67420000     -67.19760000
S      -43.21050000     -30.69760000     -68.86970000
H      -42.72740000     -30.41750000     -71.38770000
