40
Properties=species:S:1:pos:R:3 #=T CELL(abcABC):=T 1.889726e+02=T 90.00000=T Traj:=T positionsangstrom=T Step:=T 0=T Bead:=T pbc="F F F"
C      -46.35050000     -36.28590000     -73.36560000
C      -46.33810000     -36.09570000     -72.03610000
C      -45.11180000     -35.95490000     -71.38710000
C      -43.95620000     -36.05630000     -72.17710000
C      -44.00930000     -36.25550000     -73.55230000
C      -45.22890000     -36.44660000     -74.15640000
H      -47.33920000     -36.46110000     -73.89470000
H      -45.11700000     -35.96100000     -70.26910000
H      -43.03170000     -36.26610000     -74.19840000
H      -45.44530000     -36.66080000     -75.26330000
C      -42.51090000     -35.92380000     -71.56200000
H      -41.87950000     -36.72430000     -71.93200000
H      -42.51720000     -36.01510000     -70.47830000
C      -47.58860000     -36.31820000     -71.13730000
H      -47.96890000     -37.27900000     -71.30940000
H      -47.29590000     -36.18100000     -70.08910000
S      -41.60400000     -34.23830000     -71.94890000
S      -48.97610000     -35.27540000     -71.73600000
C      -42.76930000     -33.20990000     -72.94220000
H      -42.27590000     -32.27470000     -73.30880000
H      -42.96670000     -33.80390000     -73.84160000
C      -48.63570000     -33.52150000     -71.12130000
H      -48.40150000     -33.45470000     -70.04380000
H      -49.43990000     -32.97560000     -71.47920000
C      -47.29440000     -32.91300000     -71.78100000
H      -46.56250000     -33.73380000     -71.92720000
H      -47.71170000     -32.53270000     -72.78290000
C      -44.04310000     -32.87570000     -72.29850000
H      -44.55230000     -33.80920000     -71.97730000
H      -44.70340000     -32.39890000     -73.14190000
C      -44.11820000     -31.92530000     -71.17460000
C      -43.06050000     -31.35180000     -70.49170000
C      -45.38040000     -31.50190000     -70.60700000
H      -42.00260000     -31.43020000     -70.66840000
C      -45.25460000     -30.45800000     -69.71510000
C      -46.76610000     -31.76400000     -70.93740000
C      -47.63210000     -30.95730000     -70.18910000
S      -43.59620000     -30.14820000     -69.31020000
S      -46.78290000     -29.94460000     -69.06360000
H      -48.69660000     -31.02820000     -70.18460000
