40
Properties=species:S:1:pos:R:3 #=T CELL(abcABC):=T 1.889726e+02=T 90.00000=T Traj:=T positionsangstrom=T Step:=T 0=T Bead:=T pbc="F F F"
C      -43.00320000     -33.31000000     -75.24560000
C      -43.66240000     -34.29020000     -74.44920000
C      -45.00270000     -34.00580000     -74.16920000
C      -45.70880000     -32.86240000     -74.59830000
C      -45.04810000     -31.89970000     -75.33790000
C      -43.69190000     -32.13260000     -75.62980000
H      -42.02020000     -33.56360000     -75.54890000
H      -45.64160000     -34.71040000     -73.62300000
H      -45.56290000     -31.12940000     -75.88710000
H      -43.17600000     -31.46740000     -76.27580000
C      -47.21430000     -32.82830000     -74.49180000
H      -47.70160000     -33.64640000     -73.96550000
H      -47.72550000     -32.58780000     -75.42300000
C      -42.99250000     -35.35490000     -73.71140000
H      -42.48650000     -36.03180000     -74.36810000
H      -42.26760000     -34.87080000     -72.99680000
S      -47.74840000     -31.36990000     -73.36740000
S      -44.19860000     -36.56730000     -72.84140000
C      -47.41690000     -32.05970000     -71.71850000
H      -48.17660000     -31.70200000     -71.05060000
H      -47.44560000     -33.21460000     -71.77500000
C      -44.15530000     -36.20550000     -71.01890000
H      -43.27130000     -36.58690000     -70.57620000
H      -44.96830000     -36.91320000     -70.69170000
C      -44.42600000     -34.72600000     -70.85960000
H      -43.54110000     -34.15280000     -71.22220000
H      -45.26410000     -34.35900000     -71.48940000
C      -46.06290000     -31.67330000     -71.14860000
H      -45.79980000     -30.63060000     -71.39640000
H      -45.20680000     -32.17730000     -71.66660000
C      -45.98050000     -31.95760000     -69.67000000
C      -46.56090000     -31.10580000     -68.74830000
C      -45.37380000     -33.07340000     -69.06940000
H      -47.06840000     -30.21010000     -69.02100000
C      -45.44850000     -32.92330000     -67.67330000
C      -44.64970000     -34.32490000     -69.43320000
C      -44.37970000     -35.05940000     -68.29070000
S      -46.41020000     -31.59980000     -67.07430000
S      -44.78560000     -34.29580000     -66.77750000
H      -43.92050000     -36.01190000     -68.18700000
