40
Properties=species:S:1:pos:R:3 #=T CELL(abcABC):=T 1.889726e+02=T 90.00000=T Traj:=T positionsangstrom=T Step:=T 0=T Bead:=T pbc="F F F"
C      -43.32160000     -33.28710000     -75.30400000
C      -44.10970000     -34.21830000     -74.65730000
C      -45.43710000     -33.91720000     -74.38600000
C      -45.98940000     -32.66990000     -74.70930000
C      -45.24250000     -31.74290000     -75.40190000
C      -43.89050000     -32.08320000     -75.68880000
H      -42.28070000     -33.56510000     -75.55560000
H      -46.03210000     -34.77390000     -74.01990000
H      -45.68630000     -30.75310000     -75.62220000
H      -43.30170000     -31.43260000     -76.35130000
C      -47.45910000     -32.43270000     -74.37970000
H      -47.96680000     -33.26500000     -73.95300000
H      -47.98200000     -31.96460000     -75.22530000
C      -43.61250000     -35.66620000     -74.48910000
H      -44.06870000     -36.33460000     -75.23530000
H      -42.49990000     -35.68650000     -74.76340000
S      -47.56560000     -31.06590000     -73.07590000
S      -43.83140000     -36.58590000     -72.85920000
C      -47.27520000     -31.91360000     -71.39270000
H      -48.08960000     -31.64240000     -70.76940000
H      -47.32670000     -32.98590000     -71.57150000
C      -43.62630000     -35.37870000     -71.46120000
H      -43.01330000     -34.56010000     -71.74880000
H      -43.20360000     -35.90640000     -70.59480000
C      -45.06110000     -34.75520000     -71.02070000
H      -45.46690000     -33.91310000     -71.55430000
H      -45.85930000     -35.49820000     -71.20380000
C      -45.86560000     -31.43460000     -70.85360000
H      -45.93610000     -30.31010000     -70.81000000
H      -45.07770000     -31.73590000     -71.53320000
C      -45.67590000     -31.91040000     -69.41210000
C      -45.93510000     -31.01890000     -68.39120000
C      -45.38350000     -33.20720000     -68.92230000
H      -46.05940000     -29.89260000     -68.34980000
C      -45.29260000     -33.26700000     -67.56320000
C      -45.06800000     -34.46740000     -69.54860000
C      -44.87090000     -35.45300000     -68.61400000
S      -45.78840000     -31.77810000     -66.78120000
S      -44.97800000     -34.86880000     -66.91580000
H      -44.68050000     -36.47680000     -68.82680000
