40
Properties=species:S:1:pos:R:3 #=T CELL(abcABC):=T 1.889726e+02=T 90.00000=T Traj:=T positionsangstrom=T Step:=T 0=T Bead:=T pbc="F F F"
C      -47.53290000     -32.53490000     -67.96160000
C      -47.20370000     -31.42890000     -68.80830000
C      -47.58670000     -31.40860000     -70.15740000
C      -48.30590000     -32.50910000     -70.68810000
C      -48.65350000     -33.57760000     -69.76570000
C      -48.24330000     -33.60330000     -68.45450000
H      -47.27930000     -32.61350000     -66.89140000
H      -47.31260000     -30.59090000     -70.72400000
H      -49.26080000     -34.42560000     -70.10080000
H      -48.45090000     -34.43530000     -67.76840000
C      -48.76850000     -32.57990000     -72.13580000
H      -48.86730000     -31.66310000     -72.67100000
H      -49.75700000     -33.02300000     -72.15800000
C      -46.33510000     -30.33210000     -68.26970000
H      -46.40050000     -29.50000000     -68.90850000
H      -46.63080000     -30.05270000     -67.29910000
S      -47.60080000     -33.46900000     -73.20480000
S      -44.58250000     -31.11300000     -67.97740000
C      -47.48320000     -35.16400000     -72.51250000
H      -48.29540000     -35.39060000     -71.79500000
H      -47.65390000     -35.85700000     -73.33760000
C      -43.80570000     -31.44310000     -69.63970000
H      -42.77740000     -31.59390000     -69.35890000
H      -43.88120000     -30.51270000     -70.24510000
C      -44.22950000     -32.73080000     -70.29890000
H      -44.06810000     -33.44180000     -69.52500000
H      -45.33370000     -32.80460000     -70.51470000
C      -46.12940000     -35.27920000     -71.70250000
H      -46.23280000     -36.22950000     -71.22260000
H      -46.12370000     -34.59020000     -70.92660000
C      -44.87710000     -35.28850000     -72.56690000
C      -44.69560000     -36.24530000     -73.53960000
C      -43.76010000     -34.35930000     -72.42220000
H      -45.14000000     -37.23140000     -73.68770000
C      -42.76390000     -34.69380000     -73.30390000
C      -43.45470000     -33.23650000     -71.53150000
C      -42.18780000     -32.79880000     -71.80140000
S      -43.12330000     -36.06760000     -74.30680000
S      -41.38050000     -33.65100000     -73.10890000
H      -41.57330000     -32.03170000     -71.21520000
