40
Properties=species:S:1:pos:R:3 #=T CELL(abcABC):=T 1.889726e+02=T 90.00000=T Traj:=T positionsangstrom=T Step:=T 0=T Bead:=T pbc="F F F"
C      -43.48620000     -33.29370000     -75.22280000
C      -44.29710000     -34.32280000     -74.75910000
C      -45.62360000     -33.96350000     -74.29670000
C      -46.12100000     -32.62710000     -74.28000000
C      -45.17930000     -31.62100000     -74.66350000
C      -43.97310000     -31.98450000     -75.20860000
H      -42.50800000     -33.34500000     -75.66320000
H      -46.23620000     -34.75510000     -73.92180000
H      -45.49120000     -30.61030000     -74.66150000
H      -43.26870000     -31.23580000     -75.51800000
C      -47.48490000     -32.29530000     -74.00280000
H      -47.97400000     -33.16040000     -73.45750000
H      -48.13350000     -32.13280000     -74.91240000
C      -43.80800000     -35.74390000     -74.72630000
H      -44.53710000     -36.29080000     -75.42050000
H      -42.83900000     -35.85850000     -75.30760000
S      -47.47700000     -30.72950000     -73.00360000
S      -43.81150000     -36.56920000     -73.01660000
C      -47.15370000     -31.56760000     -71.38430000
H      -47.76740000     -30.98720000     -70.65500000
H      -47.63170000     -32.52210000     -71.43250000
C      -43.79750000     -35.17200000     -71.76490000
H      -43.48310000     -34.29910000     -72.47660000
H      -42.90930000     -35.32190000     -71.12640000
C      -45.12510000     -35.16540000     -71.04390000
H      -45.78510000     -34.46420000     -71.55660000
H      -45.54050000     -36.15860000     -71.04960000
C      -45.69510000     -31.64680000     -71.03230000
H      -45.16970000     -30.71370000     -71.25350000
H      -45.13720000     -32.36010000     -71.68050000
C      -45.54250000     -32.01200000     -69.56750000
C      -45.66770000     -31.06780000     -68.57860000
C      -45.22210000     -33.32290000     -69.08320000
H      -46.05990000     -30.09940000     -68.75570000
C      -45.24290000     -33.37470000     -67.68400000
C      -45.06550000     -34.71360000     -69.56370000
C      -45.02120000     -35.63550000     -68.58480000
S      -45.58920000     -31.80780000     -66.93360000
S      -45.10890000     -34.91910000     -66.96260000
H      -45.04390000     -36.64910000     -68.71520000
