40
Properties=species:S:1:pos:R:3 #=T CELL(abcABC):=T 1.889726e+02=T 90.00000=T Traj:=T positionsangstrom=T Step:=T 0=T Bead:=T pbc="F F F"
C      -42.96190000     -33.15350000     -74.52130000
C      -43.82610000     -34.19550000     -74.10210000
C      -45.21670000     -34.04250000     -74.35730000
C      -45.77700000     -32.87210000     -74.85720000
C      -44.94030000     -31.79260000     -75.20960000
C      -43.55100000     -32.03040000     -75.13910000
H      -41.93020000     -33.12760000     -74.16700000
H      -45.91700000     -34.95370000     -74.08370000
H      -45.34250000     -30.85990000     -75.60360000
H      -42.80070000     -31.28500000     -75.44020000
C      -47.26940000     -32.65640000     -74.85290000
H      -47.72760000     -33.59300000     -74.64530000
H      -47.67050000     -32.30850000     -75.82940000
C      -43.09340000     -35.52330000     -73.61890000
H      -42.69420000     -35.99300000     -74.46940000
H      -42.15500000     -35.19950000     -73.04600000
S      -47.74170000     -31.33050000     -73.69680000
S      -43.86550000     -36.81240000     -72.46770000
C      -47.56410000     -32.02910000     -72.00400000
H      -48.30700000     -31.56750000     -71.33470000
H      -47.89760000     -33.07080000     -72.24990000
C      -43.50700000     -36.09840000     -70.74480000
H      -42.39130000     -36.08280000     -70.57440000
H      -43.96200000     -36.77070000     -70.00680000
C      -44.21270000     -34.73890000     -70.71710000
H      -43.45070000     -34.02070000     -71.14180000
H      -45.05980000     -34.80780000     -71.27830000
C      -46.09000000     -32.03380000     -71.38260000
H      -45.68090000     -31.01210000     -71.59190000
H      -45.50250000     -32.74010000     -71.93340000
C      -46.09550000     -32.12260000     -69.90610000
C      -46.71980000     -31.21590000     -69.07880000
C      -45.42480000     -33.11140000     -69.06550000
H      -47.32940000     -30.41730000     -69.52090000
C      -45.65870000     -32.90300000     -67.69760000
C      -44.54620000     -34.21560000     -69.33060000
C      -44.19330000     -34.95130000     -68.17150000
S      -46.76890000     -31.58760000     -67.33850000
S      -44.87470000     -34.15210000     -66.75350000
H      -43.53860000     -35.84210000     -68.04980000
