40
Properties=species:S:1:pos:R:3 #=T CELL(abcABC):=T 1.889726e+02=T 90.00000=T Traj:=T positionsangstrom=T Step:=T 0=T Bead:=T pbc="F F F"
C      -45.40830000     -37.68140000     -72.76250000
C      -45.41590000     -37.04770000     -71.52060000
C      -44.44280000     -36.13850000     -71.15180000
C      -43.47960000     -35.76930000     -72.13790000
C      -43.46110000     -36.41840000     -73.38930000
C      -44.41000000     -37.40740000     -73.68730000
H      -46.14850000     -38.43600000     -73.01240000
H      -44.51690000     -35.68720000     -70.20770000
H      -42.51640000     -36.28400000     -73.96270000
H      -44.36710000     -37.82750000     -74.70020000
C      -42.42430000     -34.69470000     -71.61120000
H      -41.43120000     -35.10470000     -71.50760000
H      -42.65950000     -34.30440000     -70.57360000
C      -46.53240000     -37.16180000     -70.47360000
H      -46.98000000     -38.14180000     -70.57390000
H      -46.14650000     -36.88950000     -69.49720000
S      -42.13560000     -33.33760000     -72.85820000
S      -47.89420000     -35.99130000     -70.79100000
C      -43.87230000     -33.08840000     -73.69400000
H      -43.73000000     -32.23710000     -74.31840000
H      -43.95780000     -33.91450000     -74.44290000
C      -47.33900000     -34.32920000     -70.21250000
H      -46.23890000     -34.26070000     -70.33720000
H      -47.55910000     -34.19810000     -69.19770000
C      -47.96540000     -33.08100000     -71.00340000
H      -47.82170000     -33.28710000     -72.08980000
H      -48.96910000     -33.09940000     -70.82190000
C      -44.96830000     -32.87830000     -72.64970000
H      -44.82780000     -33.76550000     -72.01320000
H      -45.90010000     -32.92110000     -73.17800000
C      -44.95560000     -31.66430000     -71.72440000
C      -43.92860000     -30.74430000     -71.65130000
C      -45.98650000     -31.40000000     -70.67970000
H      -43.06480000     -30.59950000     -72.29140000
C      -45.65680000     -30.21350000     -69.90330000
C      -47.38300000     -31.82600000     -70.46270000
C      -48.00730000     -30.96670000     -69.62290000
S      -44.20570000     -29.50610000     -70.43570000
S      -46.94550000     -29.66960000     -68.98710000
H      -48.91750000     -30.96440000     -69.16120000
