40
Properties=species:S:1:pos:R:3 #=T CELL(abcABC):=T 1.889726e+02=T 90.00000=T Traj:=T positionsangstrom=T Step:=T 0=T Bead:=T pbc="F F F"
C      -43.38470000     -33.26280000     -74.94100000
C      -44.32310000     -34.29800000     -74.71060000
C      -45.63260000     -33.90510000     -74.36090000
C      -46.05810000     -32.57730000     -74.37840000
C      -45.13920000     -31.60810000     -74.86010000
C      -43.82780000     -31.96110000     -75.03440000
H      -42.36730000     -33.44260000     -75.20920000
H      -46.41520000     -34.64760000     -74.14320000
H      -45.42500000     -30.59490000     -75.12080000
H      -43.05470000     -31.16880000     -75.23550000
C      -47.51840000     -32.23300000     -73.90070000
H      -47.87000000     -33.11320000     -73.49250000
H      -48.13880000     -31.92560000     -74.74080000
C      -43.99250000     -35.83040000     -74.80180000
H      -44.78850000     -36.36550000     -75.26920000
H      -43.07540000     -36.06110000     -75.33230000
S      -47.83560000     -30.75400000     -72.80870000
S      -43.77770000     -36.51750000     -73.05310000
C      -47.18950000     -31.18940000     -71.12630000
H      -47.22700000     -30.24060000     -70.54230000
H      -47.87940000     -31.85660000     -70.61650000
C      -43.98260000     -35.19280000     -71.77270000
H      -43.83090000     -34.20310000     -72.16070000
H      -43.35120000     -35.40150000     -70.97020000
C      -45.32290000     -35.15150000     -71.14960000
H      -45.97940000     -34.49220000     -71.66680000
H      -45.77490000     -36.20380000     -71.17060000
C      -45.71330000     -31.68310000     -71.05440000
H      -45.05570000     -30.91470000     -71.46740000
H      -45.65490000     -32.61020000     -71.67420000
C      -45.47320000     -32.04770000     -69.59890000
C      -45.48760000     -31.13530000     -68.57380000
C      -45.27830000     -33.42440000     -69.12650000
H      -45.52990000     -30.09450000     -68.73300000
C      -45.13340000     -33.41410000     -67.75870000
C      -45.21870000     -34.79210000     -69.67280000
C      -45.13370000     -35.72910000     -68.70090000
S      -45.23170000     -31.81730000     -67.01590000
S      -44.99900000     -35.00060000     -67.04770000
H      -45.01780000     -36.72780000     -68.83660000
