40
Properties=species:S:1:pos:R:3 #=T CELL(abcABC):=T 1.889726e+02=T 90.00000=T Traj:=T positionsangstrom=T Step:=T 0=T Bead:=T pbc="F F F"
C      -43.52340000     -33.22480000     -74.96780000
C      -44.44470000     -34.30140000     -74.74440000
C      -45.70190000     -33.86630000     -74.34180000
C      -46.09240000     -32.53620000     -74.22400000
C      -45.17760000     -31.48170000     -74.41780000
C      -43.87950000     -31.89930000     -74.68320000
H      -42.49190000     -33.43260000     -75.29950000
H      -46.39490000     -34.67560000     -74.02640000
H      -45.25180000     -30.39880000     -74.17450000
H      -43.22640000     -30.99130000     -74.87750000
C      -47.53610000     -32.23930000     -73.97260000
H      -48.09700000     -33.09160000     -73.47410000
H      -48.06000000     -32.03400000     -74.95740000
C      -44.01520000     -35.71130000     -74.72510000
H      -44.77960000     -36.36470000     -75.16180000
H      -42.97790000     -35.91940000     -75.15660000
S      -47.90200000     -30.73300000     -72.90750000
S      -43.79680000     -36.46910000     -73.03820000
C      -47.33860000     -31.21020000     -71.22000000
H      -47.43010000     -30.28020000     -70.63090000
H      -48.01240000     -32.00600000     -70.81980000
C      -44.13680000     -35.22390000     -71.72490000
H      -43.81060000     -34.25560000     -72.02820000
H      -43.30300000     -35.58330000     -70.99270000
C      -45.52670000     -35.27850000     -71.10740000
H      -46.29710000     -34.74980000     -71.64970000
H      -45.91370000     -36.32230000     -71.07040000
C      -45.82290000     -31.68920000     -71.07230000
H      -45.24220000     -30.83960000     -71.46530000
H      -45.63550000     -32.59460000     -71.64640000
C      -45.45470000     -32.09370000     -69.67280000
C      -45.10730000     -31.12670000     -68.74450000
C      -45.42480000     -33.47790000     -69.11370000
H      -44.81870000     -30.08600000     -69.00170000
C      -45.11400000     -33.43990000     -67.76320000
C      -45.48380000     -34.82420000     -69.65500000
C      -45.20380000     -35.73480000     -68.66210000
S      -44.77970000     -31.84160000     -67.17190000
S      -44.91100000     -35.06340000     -67.10980000
H      -45.15640000     -36.78210000     -68.79960000
