40
Properties=species:S:1:pos:R:3 #=T CELL(abcABC):=T 1.889726e+02=T 90.00000=T Traj:=T positionsangstrom=T Step:=T 0=T Bead:=T pbc="F F F"
C      -45.42740000     -29.07920000     -70.37340000
C      -45.61770000     -30.26640000     -69.60530000
C      -44.48370000     -31.14000000     -69.48370000
C      -43.25820000     -30.93760000     -70.17790000
C      -43.03500000     -29.68200000     -70.78930000
C      -44.12960000     -28.84570000     -70.91020000
H      -46.16630000     -28.40950000     -70.77230000
H      -44.48270000     -32.07340000     -68.84890000
H      -42.10580000     -29.56090000     -71.31320000
H      -43.94820000     -27.88350000     -71.48830000
C      -42.15980000     -32.00360000     -70.16170000
H      -42.43810000     -32.87430000     -69.64130000
H      -41.26860000     -31.63370000     -69.64360000
C      -46.96980000     -30.59100000     -68.94530000
H      -47.14960000     -29.87520000     -68.21730000
H      -47.57480000     -30.50440000     -69.84590000
S      -41.64590000     -32.52530000     -71.88300000
S      -47.02840000     -32.19940000     -68.05250000
C      -43.17650000     -33.38860000     -72.37500000
H      -44.11880000     -32.85190000     -72.23950000
H      -42.98440000     -33.74160000     -73.42510000
C      -47.58580000     -33.26900000     -69.40740000
H      -48.52730000     -32.84360000     -69.78550000
H      -47.82830000     -34.20610000     -68.93660000
C      -46.54000000     -33.56790000     -70.43720000
H      -46.27950000     -32.63690000     -71.01790000
H      -45.62970000     -33.86360000     -70.00310000
C      -43.43810000     -34.72370000     -71.61080000
H      -43.65980000     -34.55950000     -70.54200000
H      -42.44380000     -35.27060000     -71.75820000
C      -44.51230000     -35.54330000     -72.33790000
C      -44.20560000     -36.38700000     -73.41520000
C      -45.99370000     -35.54930000     -72.21160000
H      -43.33650000     -36.79160000     -73.81940000
C      -46.67920000     -36.27210000     -73.18750000
C      -46.92850000     -34.67050000     -71.40110000
C      -48.19810000     -34.83280000     -71.82690000
S      -45.58920000     -37.13140000     -74.25550000
S      -48.36710000     -35.99580000     -73.10600000
H      -48.99150000     -34.28450000     -71.53300000
