40
Properties=species:S:1:pos:R:3 #=T CELL(abcABC):=T 1.889726e+02=T 90.00000=T Traj:=T positionsangstrom=T Step:=T 0=T Bead:=T pbc="F F F"
C      -43.69250000     -33.05940000     -74.98400000
C      -44.76140000     -33.89460000     -74.67040000
C      -46.04610000     -33.45260000     -74.28560000
C      -46.25030000     -32.08320000     -74.16760000
C      -45.18600000     -31.21300000     -74.42410000
C      -43.95920000     -31.67720000     -74.85000000
H      -42.78060000     -33.54020000     -75.28020000
H      -46.91730000     -34.08880000     -74.19650000
H      -45.30110000     -30.16470000     -74.46420000
H      -43.24010000     -30.90790000     -75.02980000
C      -47.68770000     -31.57970000     -73.92960000
H      -48.38000000     -32.36240000     -73.86840000
H      -48.10220000     -30.91150000     -74.73920000
C      -44.46270000     -35.41450000     -74.88430000
H      -44.96220000     -35.83730000     -75.81590000
H      -43.37920000     -35.59110000     -75.06940000
S      -47.82280000     -30.59380000     -72.29950000
S      -45.06170000     -36.54190000     -73.57530000
C      -47.22740000     -31.85580000     -71.06200000
H      -47.64680000     -31.63260000     -70.05670000
H      -47.62240000     -32.84350000     -71.33890000
C      -44.31060000     -35.71380000     -72.12950000
H      -43.74320000     -34.86030000     -72.55800000
H      -43.64440000     -36.43610000     -71.71250000
C      -45.40610000     -35.39260000     -71.06780000
H      -46.09010000     -34.63070000     -71.50210000
H      -46.02910000     -36.28180000     -70.91230000
C      -45.69270000     -31.83130000     -71.00960000
H      -45.39940000     -30.80640000     -71.33470000
H      -45.41210000     -32.55840000     -71.76370000
C      -45.12940000     -32.25880000     -69.67020000
C      -44.99550000     -31.28900000     -68.69540000
C      -44.86300000     -33.58920000     -69.15180000
H      -45.26440000     -30.25020000     -68.77970000
C      -44.63680000     -33.57860000     -67.72190000
C      -44.89220000     -34.93930000     -69.64560000
C      -44.61300000     -35.91360000     -68.70740000
S      -44.54370000     -31.96790000     -67.08890000
S      -44.34270000     -35.22760000     -67.11530000
H      -44.81000000     -36.99820000     -68.61870000
