40
Properties=species:S:1:pos:R:3 #=T CELL(abcABC):=T 1.889726e+02=T 90.00000=T Traj:=T positionsangstrom=T Step:=T 0=T Bead:=T pbc="F F F"
C      -43.47200000     -33.09560000     -74.66610000
C      -44.41260000     -34.15250000     -74.63260000
C      -45.75090000     -33.84490000     -74.37820000
C      -46.14040000     -32.51960000     -74.22140000
C      -45.26200000     -31.44530000     -74.27230000
C      -43.90330000     -31.74190000     -74.50230000
H      -42.42040000     -33.37460000     -74.57910000
H      -46.49610000     -34.65290000     -74.49830000
H      -45.39920000     -30.37380000     -74.07480000
H      -43.18680000     -30.91020000     -74.38990000
C      -47.61380000     -32.23300000     -73.86410000
H      -48.11870000     -33.01990000     -73.43460000
H      -48.12490000     -32.09620000     -74.75770000
C      -44.02210000     -35.66440000     -74.67580000
H      -44.68220000     -36.16300000     -75.36140000
H      -43.10320000     -35.74830000     -75.21600000
S      -47.87150000     -30.71830000     -72.83310000
S      -43.93070000     -36.46830000     -73.04580000
C      -47.40280000     -31.40810000     -71.13880000
H      -47.56910000     -30.63280000     -70.42530000
H      -48.13160000     -32.22680000     -70.97120000
C      -44.25210000     -35.08160000     -71.82960000
H      -44.30760000     -34.17850000     -72.38170000
H      -43.44580000     -34.96690000     -71.09440000
C      -45.67980000     -35.27630000     -71.07810000
H      -46.34170000     -34.60660000     -71.65420000
H      -46.03980000     -36.31130000     -71.20680000
C      -45.94080000     -31.88460000     -71.12750000
H      -45.33760000     -31.06670000     -71.61660000
H      -45.80070000     -32.69740000     -71.82050000
C      -45.38670000     -32.19950000     -69.79900000
C      -44.98170000     -31.18960000     -68.87530000
C      -45.31820000     -33.52560000     -69.24670000
H      -45.09830000     -30.09450000     -68.98220000
C      -44.87130000     -33.47840000     -67.90030000
C      -45.54860000     -34.85280000     -69.65150000
C      -45.47770000     -35.80880000     -68.62060000
S      -44.49890000     -31.88010000     -67.35340000
S      -44.84530000     -35.03680000     -67.12240000
H      -45.63480000     -36.88470000     -68.67960000
