40
Properties=species:S:1:pos:R:3 #=T CELL(abcABC):=T 1.889726e+02=T 90.00000=T Traj:=T positionsangstrom=T Step:=T 0=T Bead:=T pbc="F F F"
C      -46.56330000     -32.63220000     -75.01140000
C      -45.73520000     -33.68950000     -74.57560000
C      -46.28690000     -34.66100000     -73.75620000
C      -47.62550000     -34.58820000     -73.26310000
C      -48.26390000     -33.43630000     -73.61050000
C      -47.79310000     -32.49040000     -74.49720000
H      -46.17610000     -31.83580000     -75.65060000
H      -45.64070000     -35.56440000     -73.57700000
H      -49.35680000     -33.39360000     -73.34380000
H      -48.45610000     -31.63920000     -74.76060000
C      -48.29010000     -35.75500000     -72.67320000
H      -48.54790000     -36.53600000     -73.34880000
H      -49.23950000     -35.53960000     -72.22780000
C      -44.39880000     -33.86580000     -75.17700000
H      -44.50570000     -34.45080000     -76.08330000
H      -44.13010000     -32.89170000     -75.62480000
S      -47.28460000     -36.40120000     -71.28020000
S      -43.03740000     -34.44860000     -74.06770000
C      -46.97280000     -34.73560000     -70.39650000
H      -46.71350000     -33.83630000     -70.98410000
H      -47.82710000     -34.44940000     -69.84570000
C      -42.83950000     -33.12630000     -72.78280000
H      -42.66270000     -32.16690000     -73.28230000
H      -41.82220000     -33.44980000     -72.38900000
C      -43.99430000     -33.22060000     -71.83520000
H      -44.85620000     -32.90310000     -72.37500000
H      -44.04640000     -34.19540000     -71.48360000
C      -45.79520000     -34.98480000     -69.45930000
H      -44.94610000     -35.47460000     -69.98310000
H      -46.02840000     -35.74360000     -68.72740000
C      -45.20970000     -33.75020000     -68.75180000
C      -45.35350000     -33.51630000     -67.38490000
C      -44.49230000     -32.59050000     -69.33160000
H      -45.88370000     -34.18170000     -66.71220000
C      -44.39620000     -31.49130000     -68.42370000
C      -43.95130000     -32.28080000     -70.59800000
C      -43.43270000     -31.01350000     -70.61550000
S      -44.79920000     -31.95610000     -66.86540000
S      -43.64030000     -30.11310000     -69.11650000
H      -43.28020000     -30.52860000     -71.56580000
