40
Properties=species:S:1:pos:R:3 #=T CELL(abcABC):=T 1.889726e+02=T 90.00000=T Traj:=T positionsangstrom=T Step:=T 0=T Bead:=T pbc="F F F"
C      -45.34200000     -29.11500000     -70.59980000
C      -45.42080000     -30.21630000     -69.71440000
C      -44.36150000     -31.10610000     -69.56340000
C      -43.17920000     -30.94270000     -70.30320000
C      -43.13280000     -29.90030000     -71.27020000
C      -44.21740000     -29.02510000     -71.42400000
H      -46.04750000     -28.28510000     -70.66910000
H      -44.57950000     -31.88310000     -68.82910000
H      -42.30080000     -29.83780000     -71.98040000
H      -44.06780000     -28.13190000     -71.93720000
C      -42.12280000     -31.99810000     -70.11710000
H      -42.55460000     -32.84920000     -69.51040000
H      -41.28950000     -31.52490000     -69.60590000
C      -46.62410000     -30.22690000     -68.75580000
H      -46.29190000     -29.74560000     -67.83530000
H      -47.46710000     -29.54900000     -69.12440000
S      -41.48460000     -32.67610000     -71.76930000
S      -47.09990000     -31.89750000     -68.15620000
C      -42.99270000     -33.37900000     -72.50720000
H      -43.73970000     -32.60910000     -72.53290000
H      -42.66550000     -33.73860000     -73.44350000
C      -47.67430000     -32.97030000     -69.57900000
H      -48.33910000     -32.39280000     -70.27750000
H      -48.38450000     -33.69580000     -69.14200000
C      -46.55080000     -33.65680000     -70.34990000
H      -45.98280000     -32.88130000     -70.89280000
H      -45.91160000     -34.12000000     -69.63720000
C      -43.64280000     -34.51860000     -71.74800000
H      -44.21050000     -34.13490000     -70.84110000
H      -42.94240000     -35.19620000     -71.38950000
C      -44.68280000     -35.30480000     -72.53660000
C      -44.37100000     -36.11240000     -73.63920000
C      -46.09520000     -35.33390000     -72.24760000
H      -43.32110000     -36.33340000     -73.84170000
C      -46.66110000     -36.39970000     -72.96370000
C      -47.01810000     -34.65290000     -71.41450000
C      -48.25110000     -35.21590000     -71.48630000
S      -45.65540000     -37.08440000     -74.18220000
S      -48.38020000     -36.50930000     -72.62030000
H      -49.15240000     -34.96350000     -70.82570000
