40
Properties=species:S:1:pos:R:3 #=T CELL(abcABC):=T 1.889726e+02=T 90.00000=T Traj:=T positionsangstrom=T Step:=T 0=T Bead:=T pbc="F F F"
C      -45.38330000     -29.61200000     -71.03440000
C      -45.23720000     -30.42060000     -69.84220000
C      -44.07520000     -31.25760000     -69.59780000
C      -42.99830000     -31.22710000     -70.55280000
C      -43.19810000     -30.42540000     -71.72910000
C      -44.35270000     -29.59730000     -71.96230000
H      -46.22370000     -28.93450000     -71.18170000
H      -44.01970000     -31.82770000     -68.66930000
H      -42.38200000     -30.37470000     -72.46800000
H      -44.38850000     -28.90460000     -72.74880000
C      -41.81140000     -31.99930000     -70.35580000
H      -41.85050000     -32.54230000     -69.34800000
H      -40.90860000     -31.39340000     -70.32610000
C      -46.30090000     -30.33640000     -68.77720000
H      -45.97490000     -29.56410000     -67.97880000
H      -47.20780000     -29.96820000     -69.26260000
S      -41.43200000     -33.08070000     -71.91020000
S      -46.85250000     -31.82290000     -67.89530000
C      -43.08580000     -33.83890000     -72.29250000
H      -43.83410000     -32.96560000     -72.25250000
H      -42.95230000     -34.15740000     -73.33940000
C      -47.52800000     -32.85100000     -69.29080000
H      -48.40810000     -32.40760000     -69.75870000
H      -48.08200000     -33.65650000     -68.74360000
C      -46.46240000     -33.42080000     -70.28000000
H      -45.76680000     -32.59680000     -70.57590000
H      -45.83460000     -34.11380000     -69.69530000
C      -43.57630000     -34.93880000     -71.30920000
H      -43.88130000     -34.47910000     -70.33350000
H      -42.66030000     -35.59440000     -71.30290000
C      -44.78630000     -35.59910000     -72.08040000
C      -44.57740000     -36.73090000     -72.84310000
C      -46.18220000     -35.17080000     -72.13860000
H      -43.68410000     -37.29610000     -72.88380000
C      -46.95200000     -35.89950000     -73.07080000
C      -47.01460000     -34.24250000     -71.39070000
C      -48.27770000     -34.14580000     -71.92710000
S      -45.99070000     -37.17130000     -73.74910000
S      -48.61280000     -35.40060000     -73.07540000
H      -49.11270000     -33.57450000     -71.52320000
