40
Properties=species:S:1:pos:R:3 #=T CELL(abcABC):=T 1.889726e+02=T 90.00000=T Traj:=T positionsangstrom=T Step:=T 0=T Bead:=T pbc="F F F"
C      -45.37010000     -29.30170000     -70.85430000
C      -45.27640000     -30.12510000     -69.69350000
C      -44.20380000     -30.98570000     -69.61120000
C      -43.31670000     -31.16050000     -70.71400000
C      -43.44820000     -30.41870000     -71.91530000
C      -44.54930000     -29.51080000     -71.98440000
H      -46.12720000     -28.57800000     -70.95380000
H      -44.01570000     -31.62860000     -68.77920000
H      -42.80100000     -30.47580000     -72.78740000
H      -44.65710000     -28.83830000     -72.86810000
C      -42.08000000     -31.96240000     -70.32310000
H      -42.25090000     -32.58490000     -69.40760000
H      -41.26280000     -31.36260000     -70.09180000
C      -46.34930000     -30.04040000     -68.61050000
H      -45.84720000     -29.49310000     -67.81180000
H      -47.17680000     -29.56610000     -69.16990000
S      -41.44780000     -33.05770000     -71.72720000
S      -46.86510000     -31.76580000     -68.01100000
C      -43.01540000     -33.78120000     -72.35490000
H      -43.79360000     -32.94510000     -72.34180000
H      -42.65270000     -34.11140000     -73.41230000
C      -47.39390000     -32.67570000     -69.54240000
H      -47.74010000     -31.98600000     -70.32720000
H      -48.17050000     -33.30160000     -69.09150000
C      -46.31180000     -33.61720000     -70.10330000
H      -45.39080000     -33.10680000     -70.49920000
H      -45.91840000     -34.24610000     -69.28640000
C      -43.46770000     -35.03220000     -71.57390000
H      -43.75650000     -34.71810000     -70.55820000
H      -42.59110000     -35.77150000     -71.59820000
C      -44.64420000     -35.68500000     -72.32320000
C      -44.52450000     -36.70350000     -73.23940000
C      -46.06980000     -35.30770000     -72.09920000
H      -43.63070000     -37.26740000     -73.57710000
C      -46.87990000     -35.97450000     -73.03950000
C      -46.85610000     -34.45860000     -71.25480000
C      -48.20820000     -34.60660000     -71.45390000
S      -45.93870000     -37.09090000     -74.04210000
S      -48.58700000     -35.70490000     -72.73660000
H      -48.99100000     -34.15900000     -70.85560000
