40
Properties=species:S:1:pos:R:3 #=T CELL(abcABC):=T 1.889726e+02=T 90.00000=T Traj:=T positionsangstrom=T Step:=T 0=T Bead:=T pbc="F F F"
C      -45.47220000     -29.52120000     -70.93400000
C      -45.24600000     -30.14700000     -69.72270000
C      -44.14870000     -31.02670000     -69.58370000
C      -43.18930000     -31.18090000     -70.55590000
C      -43.32770000     -30.40000000     -71.77440000
C      -44.47730000     -29.67250000     -71.95590000
H      -46.34330000     -28.91650000     -71.17040000
H      -44.00740000     -31.53590000     -68.63610000
H      -42.56290000     -30.39660000     -72.51850000
H      -44.54320000     -29.17190000     -72.98790000
C      -41.96370000     -32.03900000     -70.38480000
H      -42.07370000     -32.61240000     -69.44090000
H      -41.09190000     -31.34360000     -70.19980000
C      -46.25440000     -30.08280000     -68.65620000
H      -45.96210000     -29.36690000     -67.92310000
H      -47.27790000     -29.66960000     -68.87440000
S      -41.49470000     -33.07660000     -71.80330000
S      -46.64010000     -31.69880000     -67.92080000
C      -43.04500000     -34.00050000     -72.33540000
H      -43.86580000     -33.39960000     -72.59190000
H      -42.68970000     -34.50490000     -73.20250000
C      -47.35520000     -32.65040000     -69.38140000
H      -47.93320000     -31.96330000     -70.01160000
H      -48.22220000     -33.23010000     -69.02050000
C      -46.42360000     -33.62820000     -70.14330000
H      -45.69150000     -32.94590000     -70.57800000
H      -45.91970000     -34.26930000     -69.39120000
C      -43.67540000     -35.05800000     -71.38750000
H      -43.99950000     -34.58440000     -70.43450000
H      -42.89210000     -35.73580000     -71.07100000
C      -44.76360000     -35.78940000     -72.11820000
C      -44.46650000     -36.62830000     -73.13430000
C      -46.16390000     -35.37240000     -72.05290000
H      -43.45350000     -36.99910000     -73.29610000
C      -46.96320000     -36.07620000     -72.95440000
C      -46.98200000     -34.43210000     -71.30070000
C      -48.29200000     -34.34620000     -71.73320000
S      -46.01690000     -37.09840000     -73.98740000
S      -48.57070000     -35.47380000     -73.04650000
H      -49.03040000     -33.74630000     -71.33340000
