40
Properties=species:S:1:pos:R:3 #=T CELL(abcABC):=T 1.889726e+02=T 90.00000=T Traj:=T positionsangstrom=T Step:=T 0=T Bead:=T pbc="F F F"
C      -45.40130000     -29.62990000     -71.08580000
C      -45.18370000     -30.35000000     -69.86490000
C      -44.02040000     -31.03940000     -69.59660000
C      -43.10110000     -31.19560000     -70.63940000
C      -43.22230000     -30.43520000     -71.84780000
C      -44.42980000     -29.70640000     -71.99350000
H      -46.32270000     -29.01640000     -71.16520000
H      -43.89260000     -31.63640000     -68.69650000
H      -42.48620000     -30.55560000     -72.67440000
H      -44.53720000     -29.18520000     -72.92030000
C      -41.87520000     -32.11710000     -70.39810000
H      -42.08470000     -32.75910000     -69.59570000
H      -40.97580000     -31.52170000     -70.17020000
C      -46.30550000     -30.26880000     -68.77640000
H      -45.85820000     -29.63710000     -67.98600000
H      -47.18440000     -29.82250000     -69.14370000
S      -41.53050000     -33.15200000     -71.83770000
S      -46.69630000     -31.87850000     -67.88270000
C      -43.15140000     -33.78110000     -72.33940000
H      -43.96170000     -32.94130000     -72.39980000
H      -43.13380000     -34.13540000     -73.39720000
C      -47.50460000     -32.82530000     -69.31100000
H      -47.89810000     -32.05910000     -70.00740000
H      -48.16370000     -33.55350000     -68.88390000
C      -46.45190000     -33.52260000     -70.12400000
H      -45.83020000     -32.79870000     -70.62400000
H      -45.76120000     -34.12730000     -69.55810000
C      -43.60700000     -34.93750000     -71.46400000
H      -43.95300000     -34.46570000     -70.54230000
H      -42.90490000     -35.65990000     -71.18500000
C      -44.79130000     -35.67210000     -72.07720000
C      -44.60880000     -36.72320000     -72.90660000
C      -46.11240000     -35.16250000     -72.07500000
H      -43.63610000     -37.09720000     -73.08660000
C      -46.93060000     -35.86580000     -72.96950000
C      -46.97730000     -34.33020000     -71.29210000
C      -48.27150000     -34.23890000     -71.72230000
S      -46.05290000     -37.11200000     -73.77320000
S      -48.54030000     -35.29130000     -73.10410000
H      -49.00930000     -33.65580000     -71.27750000
