40
Properties=species:S:1:pos:R:3 #=T CELL(abcABC):=T 1.889726e+02=T 90.00000=T Traj:=T positionsangstrom=T Step:=T 0=T Bead:=T pbc="F F F"
C      -45.58740000     -32.08160000     -74.38790000
C      -44.83250000     -33.27470000     -74.50130000
C      -45.48620000     -34.46530000     -74.17050000
C      -46.87920000     -34.41040000     -73.78560000
C      -47.62390000     -33.24340000     -73.83910000
C      -46.94740000     -32.08700000     -74.09990000
H      -45.09220000     -31.10040000     -74.50730000
H      -44.89300000     -35.41500000     -74.02630000
H      -48.67760000     -33.18280000     -73.52380000
H      -47.49240000     -31.16140000     -73.91730000
C      -47.54280000     -35.77730000     -73.48990000
H      -47.61970000     -36.47650000     -74.35400000
H      -48.59340000     -35.51680000     -73.31040000
C      -43.36000000     -33.26250000     -74.80680000
H      -43.06980000     -33.69580000     -75.79630000
H      -42.95820000     -32.23020000     -74.86910000
S      -46.87420000     -36.74650000     -72.03140000
S      -42.27100000     -34.07140000     -73.53970000
C      -46.86790000     -35.31070000     -70.83810000
H      -46.45410000     -34.53260000     -71.46430000
H      -47.91600000     -34.97440000     -70.62490000
C      -42.40500000     -33.07050000     -72.01240000
H      -42.81880000     -32.14730000     -72.33570000
H      -41.46810000     -33.03340000     -71.51540000
C      -43.48050000     -33.66480000     -71.03170000
H      -44.38230000     -33.97230000     -71.62940000
H      -43.08360000     -34.53510000     -70.54280000
C      -46.16090000     -35.35520000     -69.54060000
H      -45.20340000     -35.73560000     -69.58230000
H      -46.66140000     -35.98080000     -68.83160000
C      -46.13730000     -33.83580000     -68.93920000
C      -47.04080000     -33.44290000     -67.95230000
C      -45.24250000     -32.72110000     -69.26460000
H      -47.92460000     -34.07950000     -67.59080000
C      -45.44170000     -31.55370000     -68.56740000
C      -43.93570000     -32.61550000     -69.95710000
C      -43.24660000     -31.49270000     -69.85030000
S      -46.90930000     -31.72790000     -67.59950000
S      -44.13060000     -30.43330000     -68.67590000
H      -42.36730000     -31.04400000     -70.31430000
