40
Properties=species:S:1:pos:R:3 #=T CELL(abcABC):=T 1.889726e+02=T 90.00000=T Traj:=T positionsangstrom=T Step:=T 0=T Bead:=T pbc="F F F"
C      -46.27410000     -32.44800000     -74.66970000
C      -45.40040000     -33.51160000     -74.58550000
C      -45.96130000     -34.76050000     -74.25430000
C      -47.23590000     -34.91120000     -73.77590000
C      -48.04100000     -33.76910000     -73.87340000
C      -47.56720000     -32.54910000     -74.30120000
H      -46.00270000     -31.50430000     -75.01990000
H      -45.28180000     -35.66120000     -74.14890000
H      -49.08210000     -33.82970000     -73.49840000
H      -48.16730000     -31.63960000     -74.30910000
C      -47.78710000     -36.18450000     -73.09890000
H      -47.63190000     -36.98130000     -73.76750000
H      -48.84800000     -36.10440000     -72.95310000
C      -44.01730000     -33.30470000     -75.12570000
H      -43.87750000     -33.87330000     -76.07030000
H      -43.91660000     -32.27200000     -75.31800000
S      -46.99600000     -36.63500000     -71.37300000
S      -42.59370000     -33.99530000     -74.07870000
C      -46.99880000     -34.99190000     -70.50560000
H      -46.76800000     -34.22700000     -71.19140000
H      -48.04810000     -34.80280000     -69.99640000
C      -42.81680000     -32.89410000     -72.66070000
H      -42.98030000     -31.86730000     -73.14020000
H      -41.83100000     -32.69650000     -72.27720000
C      -43.81420000     -33.35650000     -71.57570000
H      -44.79230000     -33.34900000     -71.99490000
H      -43.61680000     -34.44220000     -71.37570000
C      -45.96420000     -34.99550000     -69.41270000
H      -44.96620000     -35.34110000     -69.73060000
H      -46.41630000     -35.67610000     -68.60650000
C      -45.85950000     -33.62010000     -68.80270000
C      -46.46020000     -33.20920000     -67.61840000
C      -44.85680000     -32.61680000     -69.24130000
H      -47.18610000     -33.83820000     -67.19530000
C      -44.78280000     -31.56540000     -68.35710000
C      -43.87130000     -32.44690000     -70.34750000
C      -43.15730000     -31.31440000     -70.20730000
S      -45.92500000     -31.62540000     -67.02710000
S      -43.51950000     -30.41700000     -68.76390000
H      -42.32830000     -31.11360000     -70.92570000
