40
Properties=species:S:1:pos:R:3 #=T CELL(abcABC):=T 1.889726e+02=T 90.00000=T Traj:=T positionsangstrom=T Step:=T 0=T Bead:=T pbc="F F F"
C      -42.96530000     -30.21030000     -72.11960000
C      -43.79800000     -30.74960000     -73.10010000
C      -45.25210000     -30.66690000     -72.90710000
C      -45.76660000     -30.17560000     -71.75770000
C      -44.87950000     -29.69560000     -70.76620000
C      -43.48310000     -29.66670000     -70.92780000
H      -41.86350000     -30.09860000     -72.29240000
H      -45.85700000     -31.19920000     -73.70400000
H      -45.25430000     -29.30730000     -69.90870000
H      -42.75080000     -29.48900000     -70.16450000
C      -47.22970000     -29.93430000     -71.64500000
H      -47.80150000     -30.44030000     -72.41880000
H      -47.44560000     -28.82830000     -71.49550000
C      -43.24440000     -31.43780000     -74.28810000
H      -43.82890000     -31.32610000     -75.18750000
H      -42.37750000     -30.86150000     -74.40890000
S      -48.01350000     -30.72780000     -70.13740000
S      -42.83550000     -33.24610000     -74.11440000
C      -47.52710000     -32.51900000     -70.35730000
H      -48.39440000     -33.17910000     -70.29860000
H      -47.04180000     -32.52720000     -71.29990000
C      -42.60020000     -33.46300000     -72.30030000
H      -42.04710000     -32.61050000     -71.93620000
H      -41.90110000     -34.31380000     -72.19670000
C      -43.88190000     -33.73420000     -71.42030000
H      -43.66480000     -33.26880000     -70.52860000
H      -44.67070000     -33.04680000     -71.87410000
C      -46.52930000     -33.10920000     -69.32740000
H      -46.92090000     -32.97910000     -68.31950000
H      -45.53380000     -32.69290000     -69.36670000
C      -46.48900000     -34.61880000     -69.54630000
C      -47.39880000     -35.46580000     -68.87290000
C      -45.64830000     -35.36920000     -70.40640000
H      -48.28590000     -35.30930000     -68.18890000
C      -45.94740000     -36.73660000     -70.43570000
C      -44.48410000     -35.10000000     -71.23230000
C      -43.89240000     -36.22730000     -71.75530000
S      -47.41100000     -37.10070000     -69.55630000
S      -44.87540000     -37.66750000     -71.39090000
H      -42.98740000     -36.34600000     -72.26340000
