40
Properties=species:S:1:pos:R:3 #=T CELL(abcABC):=T 1.889726e+02=T 90.00000=T Traj:=T positionsangstrom=T Step:=T 0=T Bead:=T pbc="F F F"
C      -44.62860000     -33.47750000     -75.49890000
C      -45.83600000     -33.83870000     -74.81850000
C      -46.59340000     -32.82970000     -74.19140000
C      -46.11470000     -31.47370000     -74.21150000
C      -44.90670000     -31.17910000     -74.87360000
C      -44.25240000     -32.17640000     -75.58250000
H      -44.04460000     -34.36260000     -75.80810000
H      -47.54610000     -33.03360000     -73.71820000
H      -44.59900000     -30.08940000     -74.87590000
H      -43.32930000     -31.86780000     -76.09850000
C      -47.02420000     -30.46060000     -73.54370000
H      -47.92030000     -31.02300000     -73.21240000
H      -47.24730000     -29.61780000     -74.19190000
C      -46.23780000     -35.27970000     -74.77770000
H      -47.06680000     -35.35040000     -75.47710000
H      -45.42060000     -35.87490000     -75.08510000
S      -46.53940000     -29.74540000     -71.91020000
S      -47.00820000     -35.95000000     -73.24940000
C      -46.10940000     -31.23400000     -70.80160000
H      -46.26310000     -30.84650000     -69.84850000
H      -46.98470000     -31.92330000     -70.93930000
C      -45.77640000     -35.48400000     -71.97930000
H      -45.27080000     -34.55180000     -72.24740000
H      -44.98610000     -36.21940000     -71.76660000
C      -46.51380000     -35.13420000     -70.64010000
H      -47.12680000     -34.26490000     -70.82300000
H      -47.28480000     -35.90020000     -70.37040000
C      -44.78510000     -31.98660000     -70.94570000
H      -44.01370000     -31.24700000     -71.18300000
H      -44.89650000     -32.75850000     -71.62920000
C      -44.42760000     -32.58600000     -69.58610000
C      -43.46730000     -31.96700000     -68.78010000
C      -44.69010000     -33.91730000     -69.10410000
H      -43.21090000     -30.93290000     -68.84530000
C      -43.90750000     -34.28880000     -68.01470000
C      -45.54730000     -35.04860000     -69.48450000
C      -45.47600000     -36.07920000     -68.59300000
S      -42.93300000     -32.89870000     -67.46330000
S      -44.21630000     -35.96730000     -67.38780000
H      -46.11160000     -37.02980000     -68.68490000
