40
Properties=species:S:1:pos:R:3 #=T CELL(abcABC):=T 1.889726e+02=T 90.00000=T Traj:=T positionsangstrom=T Step:=T 0=T Bead:=T pbc="F F F"
C      -46.27280000     -32.39350000     -74.62330000
C      -45.29610000     -33.38680000     -74.48820000
C      -45.78390000     -34.56440000     -73.98420000
C      -47.11370000     -34.87660000     -73.73740000
C      -47.96410000     -33.78720000     -73.68970000
C      -47.55710000     -32.48680000     -74.12180000
H      -46.00560000     -31.35130000     -74.91290000
H      -45.09040000     -35.42680000     -73.91290000
H      -49.05400000     -33.86780000     -73.38820000
H      -48.29990000     -31.66560000     -74.18150000
C      -47.52340000     -36.22590000     -73.29330000
H      -47.04380000     -37.05610000     -73.81940000
H      -48.59260000     -36.40550000     -73.26250000
C      -43.87140000     -33.31970000     -74.97240000
H      -43.86020000     -33.75130000     -75.98790000
H      -43.56800000     -32.25130000     -75.15730000
S      -47.02760000     -36.62440000     -71.56310000
S      -42.58130000     -34.04510000     -74.00560000
C      -47.21620000     -35.03270000     -70.60540000
H      -47.21700000     -34.25450000     -71.32060000
H      -48.10190000     -34.94010000     -70.00160000
C      -42.42020000     -33.09860000     -72.33370000
H      -42.27700000     -32.04930000     -72.55210000
H      -41.54410000     -33.50750000     -71.84200000
C      -43.66490000     -33.35130000     -71.46030000
H      -44.57770000     -33.06870000     -72.03680000
H      -43.61380000     -34.42090000     -71.15080000
C      -46.02960000     -34.95060000     -69.69650000
H      -45.18170000     -35.21120000     -70.23530000
H      -46.04930000     -35.71990000     -69.00260000
C      -45.79340000     -33.61570000     -68.99910000
C      -46.60220000     -33.31580000     -67.88130000
C      -44.79870000     -32.64520000     -69.26720000
H      -47.28630000     -34.03050000     -67.42740000
C      -44.88900000     -31.56870000     -68.34650000
C      -43.74140000     -32.43050000     -70.20640000
C      -43.14180000     -31.17250000     -70.14510000
S      -46.16270000     -31.81160000     -67.18370000
S      -43.76600000     -30.26420000     -68.71530000
H      -42.49770000     -30.63050000     -70.86440000
