40
Properties=species:S:1:pos:R:3 #=T CELL(abcABC):=T 1.889726e+02=T 90.00000=T Traj:=T positionsangstrom=T Step:=T 0=T Bead:=T pbc="F F F"
C      -43.62420000     -35.13370000     -68.30350000
C      -44.54200000     -34.04180000     -68.12170000
C      -45.86570000     -34.38900000     -68.06740000
C      -46.41580000     -35.61510000     -68.47510000
C      -45.48280000     -36.62580000     -68.77710000
C      -44.09490000     -36.41760000     -68.54360000
H      -42.56170000     -34.91550000     -68.36820000
H      -46.62420000     -33.70850000     -67.69760000
H      -45.84650000     -37.62670000     -69.19650000
H      -43.46380000     -37.26960000     -68.68790000
C      -47.89450000     -35.65130000     -68.69460000
H      -48.37530000     -35.18060000     -67.76050000
H      -48.36970000     -36.65240000     -68.76720000
C      -43.98670000     -32.69050000     -67.80970000
H      -44.63020000     -31.95490000     -67.33370000
H      -43.15870000     -32.90200000     -67.09700000
S      -48.30770000     -34.49060000     -70.07670000
S      -43.20860000     -31.84010000     -69.26040000
C      -47.15930000     -34.82530000     -71.45050000
H      -46.13690000     -34.61560000     -71.10320000
H      -47.01360000     -35.92170000     -71.72710000
C      -44.67200000     -30.93600000     -69.93260000
H      -44.33690000     -29.93960000     -70.32730000
H      -45.37090000     -30.67840000     -69.12490000
C      -45.51190000     -31.63590000     -71.00640000
H      -45.62150000     -32.73740000     -70.77170000
H      -46.48760000     -31.11650000     -71.13430000
C      -47.52990000     -33.86190000     -72.56240000
H      -47.93700000     -32.93410000     -72.16930000
H      -48.19510000     -34.38580000     -73.19400000
C      -46.41730000     -33.45990000     -73.60410000
C      -46.40130000     -34.06870000     -74.86630000
C      -45.42360000     -32.47760000     -73.47520000
H      -47.03220000     -34.96490000     -75.07970000
C      -44.66780000     -32.31720000     -74.62000000
C      -44.82870000     -31.69940000     -72.33890000
C      -43.72670000     -30.99200000     -72.72250000
S      -45.10710000     -33.54750000     -75.84170000
S      -43.31170000     -31.19000000     -74.45210000
H      -43.15140000     -30.45480000     -72.02350000
