40
Properties=species:S:1:pos:R:3 #=T CELL(abcABC):=T 1.889726e+02=T 90.00000=T Traj:=T positionsangstrom=T Step:=T 0=T Bead:=T pbc="F F F"
C      -44.76270000     -32.81750000     -75.15120000
C      -44.19120000     -34.00010000     -74.63660000
C      -45.08330000     -35.06010000     -74.26620000
C      -46.49910000     -35.03740000     -74.35120000
C      -47.00480000     -33.83750000     -74.95210000
C      -46.12260000     -32.82780000     -75.41360000
H      -44.14730000     -31.91290000     -75.41430000
H      -44.66910000     -35.96040000     -73.93170000
H      -48.09560000     -33.72350000     -75.03240000
H      -46.50860000     -31.89470000     -75.85840000
C      -47.34060000     -36.07920000     -73.72780000
H      -47.24190000     -36.98160000     -74.30060000
H      -48.38910000     -35.90320000     -73.82300000
C      -42.71850000     -34.11560000     -74.59230000
H      -42.27150000     -35.09950000     -74.89040000
H      -42.27810000     -33.39370000     -75.27570000
S      -46.93740000     -36.56450000     -72.01450000
S      -41.93500000     -33.72210000     -72.94710000
C      -47.14990000     -34.97550000     -71.05720000
H      -46.81310000     -34.09650000     -71.64630000
H      -48.16540000     -34.70910000     -70.83150000
C      -42.82310000     -32.36310000     -72.06700000
H      -43.08460000     -31.72110000     -72.85390000
H      -42.08600000     -31.96010000     -71.33680000
C      -44.00930000     -32.85340000     -71.25100000
H      -44.91510000     -33.10140000     -71.83530000
H      -43.70580000     -33.89000000     -70.88940000
C      -46.38030000     -34.91450000     -69.71620000
H      -45.32980000     -35.17700000     -69.88810000
H      -46.80220000     -35.66180000     -69.02720000
C      -46.40430000     -33.61750000     -69.00340000
C      -47.21480000     -33.45970000     -67.89520000
C      -45.51680000     -32.42420000     -69.10250000
H      -47.80310000     -34.36960000     -67.58740000
C      -45.81840000     -31.50550000     -68.14010000
C      -44.47490000     -32.08270000     -70.05680000
C      -43.94520000     -30.87360000     -69.71230000
S      -46.99170000     -32.02210000     -66.98600000
S      -44.64420000     -30.19420000     -68.19490000
H      -43.12500000     -30.34770000     -70.16910000
