40
Properties=species:S:1:pos:R:3 #=T CELL(abcABC):=T 1.889726e+02=T 90.00000=T Traj:=T positionsangstrom=T Step:=T 0=T Bead:=T pbc="F F F"
C      -45.19570000     -32.19300000     -74.59240000
C      -44.53100000     -33.43770000     -74.47170000
C      -45.20460000     -34.61230000     -74.23060000
C      -46.59410000     -34.57760000     -74.14620000
C      -47.28270000     -33.36390000     -74.32940000
C      -46.63140000     -32.15340000     -74.60870000
H      -44.62790000     -31.32800000     -74.97150000
H      -44.66120000     -35.54600000     -74.06140000
H      -48.34400000     -33.50690000     -74.20960000
H      -47.10770000     -31.18570000     -74.75520000
C      -47.32300000     -35.82250000     -73.71500000
H      -47.37830000     -36.67210000     -74.44640000
H      -48.35810000     -35.52160000     -73.52650000
C      -43.03070000     -33.39520000     -74.65280000
H      -42.83730000     -34.01050000     -75.54490000
H      -42.54110000     -32.39320000     -74.86400000
S      -46.70890000     -36.45690000     -72.10850000
S      -42.14580000     -34.10680000     -73.25740000
C      -46.90820000     -34.93130000     -71.05170000
H      -46.30350000     -34.18390000     -71.54540000
H      -47.97150000     -34.62050000     -71.18900000
C      -42.66270000     -32.96670000     -71.86130000
H      -42.76550000     -32.00640000     -72.26000000
H      -41.91960000     -33.08140000     -71.08810000
C      -43.96610000     -33.39300000     -71.25630000
H      -44.75620000     -33.28630000     -72.01170000
H      -43.86110000     -34.42020000     -70.97570000
C      -46.44730000     -35.14950000     -69.61560000
H      -45.43220000     -35.66840000     -69.59350000
H      -47.14100000     -35.74460000     -69.05050000
C      -46.27830000     -33.86960000     -68.91200000
C      -47.03230000     -33.61130000     -67.76430000
C      -45.46550000     -32.73690000     -69.24870000
H      -47.97940000     -34.11390000     -67.60300000
C      -45.62270000     -31.69500000     -68.37350000
C      -44.33930000     -32.47980000     -70.09330000
C      -43.74840000     -31.31120000     -69.87890000
S      -46.83340000     -32.01840000     -67.11490000
S      -44.47130000     -30.40350000     -68.59680000
H      -42.96600000     -30.90690000     -70.44200000
