40
Properties=species:S:1:pos:R:3 #=T CELL(abcABC):=T 1.889726e+02=T 90.00000=T Traj:=T positionsangstrom=T Step:=T 0=T Bead:=T pbc="F F F"
C      -45.08670000     -32.26040000     -75.01310000
C      -44.40030000     -33.44540000     -74.62390000
C      -45.11450000     -34.60020000     -74.31620000
C      -46.49030000     -34.56380000     -74.17550000
C      -47.17530000     -33.40550000     -74.39650000
C      -46.49530000     -32.22930000     -74.77600000
H      -44.48380000     -31.37570000     -75.24450000
H      -44.64280000     -35.55710000     -74.10190000
H      -48.26470000     -33.38390000     -74.35310000
H      -47.01640000     -31.29370000     -74.92580000
C      -47.22140000     -35.86420000     -73.79030000
H      -46.72750000     -36.63030000     -74.40430000
H      -48.30270000     -35.83380000     -73.91130000
C      -42.87240000     -33.50190000     -74.76870000
H      -42.68220000     -34.16970000     -75.60760000
H      -42.48740000     -32.56420000     -74.97510000
S      -46.86390000     -36.45750000     -72.03410000
S      -42.02430000     -34.14400000     -73.15790000
C      -47.24520000     -35.04590000     -70.93560000
H      -47.20530000     -34.04280000     -71.45560000
H      -48.28840000     -35.10220000     -70.68160000
C      -42.60700000     -32.86330000     -71.97290000
H      -42.51760000     -31.82020000     -72.43320000
H      -41.76490000     -32.76820000     -71.21520000
C      -43.90780000     -33.25330000     -71.26710000
H      -44.63020000     -33.19390000     -72.11050000
H      -43.87020000     -34.30430000     -71.03980000
C      -46.29090000     -35.04500000     -69.74520000
H      -45.33990000     -35.29650000     -70.16070000
H      -46.73320000     -35.86510000     -69.06920000
C      -46.32110000     -33.81510000     -68.93090000
C      -47.16290000     -33.63690000     -67.83030000
C      -45.43870000     -32.68200000     -69.08770000
H      -47.76670000     -34.44460000     -67.40260000
C      -45.60640000     -31.72700000     -68.15020000
C      -44.42530000     -32.32820000     -70.11050000
C      -43.98850000     -31.07860000     -69.95340000
S      -46.86540000     -32.13680000     -66.99550000
S      -44.59390000     -30.38070000     -68.45600000
H      -43.17490000     -30.52120000     -70.44760000
