40
Properties=species:S:1:pos:R:3 #=T CELL(abcABC):=T 1.889726e+02=T 90.00000=T Traj:=T positionsangstrom=T Step:=T 0=T Bead:=T pbc="F F F"
C      -46.80700000     -33.73020000     -74.92810000
C      -47.64930000     -33.47070000     -73.85440000
C      -47.62460000     -32.18730000     -73.17210000
C      -46.56460000     -31.26500000     -73.50470000
C      -45.67500000     -31.64660000     -74.56280000
C      -45.83180000     -32.81400000     -75.27630000
H      -46.99130000     -34.71620000     -75.48800000
H      -48.28710000     -31.88650000     -72.37030000
H      -44.90720000     -30.96000000     -74.84710000
H      -45.33200000     -33.00500000     -76.22530000
C      -46.48620000     -29.94940000     -72.74250000
H      -47.34800000     -29.80890000     -72.03250000
H      -46.61650000     -29.07130000     -73.32560000
C      -48.68850000     -34.42180000     -73.41610000
H      -49.68980000     -34.15110000     -73.86220000
H      -48.46970000     -35.39860000     -73.81330000
S      -44.82310000     -29.56170000     -71.87070000
S      -49.10170000     -34.51330000     -71.64160000
C      -44.36520000     -30.99650000     -70.85200000
H      -43.66280000     -30.58010000     -70.08390000
H      -45.22890000     -31.20630000     -70.29720000
C      -47.60940000     -35.25720000     -70.91890000
H      -47.32760000     -36.05480000     -71.71240000
H      -47.81290000     -35.73150000     -69.96260000
C      -46.35430000     -34.30550000     -70.81740000
H      -45.90820000     -34.03060000     -71.75440000
H      -46.60840000     -33.32440000     -70.36470000
C      -43.73520000     -32.22550000     -71.59880000
H      -42.97060000     -31.79660000     -72.25050000
H      -44.44360000     -32.62140000     -72.30000000
C      -43.14450000     -33.24870000     -70.66530000
C      -41.85710000     -33.15920000     -70.20190000
C      -43.83900000     -34.30490000     -69.95270000
H      -41.12940000     -32.40820000     -70.44880000
C      -43.04160000     -34.94810000     -68.98550000
C      -45.25140000     -34.85290000     -69.94910000
C      -45.27860000     -35.92350000     -69.05840000
S      -41.41980000     -34.25150000     -68.87810000
S      -43.86280000     -36.24810000     -68.13220000
H      -46.15940000     -36.55610000     -68.94060000
