40
Properties=species:S:1:pos:R:3 #=T CELL(abcABC):=T 1.889726e+02=T 90.00000=T Traj:=T positionsangstrom=T Step:=T 0=T Bead:=T pbc="F F F"
C      -46.83670000     -33.64120000     -74.23020000
C      -47.92500000     -32.93010000     -73.59110000
C      -47.64280000     -31.62080000     -73.13360000
C      -46.34830000     -31.04830000     -73.38300000
C      -45.46600000     -31.72490000     -74.27180000
C      -45.65030000     -33.08550000     -74.56070000
H      -46.96420000     -34.70420000     -74.36190000
H      -48.34230000     -31.00790000     -72.61740000
H      -44.57100000     -31.20030000     -74.49360000
H      -44.87630000     -33.60600000     -75.17930000
C      -46.07910000     -29.65720000     -73.04450000
H      -46.97710000     -29.09940000     -72.63730000
H      -45.69090000     -29.09810000     -73.91370000
C      -49.23410000     -33.58880000     -73.18630000
H      -50.08920000     -32.89960000     -73.17230000
H      -49.47360000     -34.34790000     -73.91590000
S      -44.64980000     -29.51170000     -71.84690000
S      -49.23740000     -34.21720000     -71.45090000
C      -44.48580000     -31.06130000     -70.81380000
H      -43.82230000     -30.86030000     -70.00490000
H      -45.42970000     -31.44720000     -70.38980000
C      -47.61320000     -35.10680000     -71.08270000
H      -47.31810000     -35.77150000     -71.89980000
H      -47.97730000     -35.73710000     -70.30180000
C      -46.44370000     -34.21130000     -70.67780000
H      -46.10480000     -33.86340000     -71.63630000
H      -46.72890000     -33.32190000     -70.08030000
C      -43.69710000     -32.17870000     -71.54620000
H      -42.73900000     -31.80810000     -71.92150000
H      -44.28190000     -32.67080000     -72.30700000
C      -43.11970000     -33.37200000     -70.59310000
C      -41.80470000     -33.36010000     -70.28670000
C      -43.88770000     -34.51080000     -70.03090000
H      -41.14890000     -32.62640000     -70.63260000
C      -43.01210000     -35.28220000     -69.25640000
C      -45.31040000     -34.93950000     -69.99070000
C      -45.40330000     -36.04080000     -69.20900000
S      -41.35120000     -34.80180000     -69.37420000
S      -43.91100000     -36.63640000     -68.49210000
H      -46.33910000     -36.43650000     -68.89830000
