40
Properties=species:S:1:pos:R:3 #=T CELL(abcABC):=T 1.889726e+02=T 90.00000=T Traj:=T positionsangstrom=T Step:=T 0=T Bead:=T pbc="F F F"
C      -46.45210000     -36.03610000     -68.78810000
C      -47.31010000     -35.88530000     -69.83720000
C      -46.90270000     -36.32080000     -71.13250000
C      -45.63930000     -36.93210000     -71.36650000
C      -44.78760000     -37.04470000     -70.28190000
C      -45.14090000     -36.64200000     -69.04080000
H      -46.66740000     -35.73730000     -67.78030000
H      -47.50420000     -36.17560000     -72.03920000
H      -43.78530000     -37.46270000     -70.43830000
H      -44.42740000     -36.72660000     -68.21720000
C      -45.17820000     -37.24710000     -72.80900000
H      -45.88570000     -36.91800000     -73.57830000
H      -45.08810000     -38.29550000     -73.07150000
C      -48.65360000     -35.15820000     -69.59300000
H      -49.51440000     -35.80300000     -69.76460000
H      -48.70820000     -34.86210000     -68.52210000
S      -43.56530000     -36.29750000     -73.08470000
S      -48.97430000     -33.74290000     -70.67450000
C      -44.08760000     -34.50620000     -73.33170000
H      -43.49450000     -34.18700000     -74.21860000
H      -45.15020000     -34.50720000     -73.68970000
C      -47.42510000     -33.01750000     -71.35900000
H      -47.68960000     -32.11500000     -71.91900000
H      -47.00380000     -33.68410000     -72.14820000
C      -46.45080000     -32.57970000     -70.29390000
H      -47.04980000     -32.28590000     -69.47890000
H      -45.71220000     -33.31570000     -69.93850000
C      -43.87810000     -33.74050000     -72.03420000
H      -43.01570000     -34.11620000     -71.45780000
H      -44.75840000     -34.04370000     -71.47420000
C      -43.75740000     -32.25010000     -72.25390000
C      -42.54780000     -31.68760000     -72.80760000
C      -44.55880000     -31.24380000     -71.56150000
H      -41.80830000     -32.15520000     -73.45100000
C      -43.99520000     -29.98590000     -71.66860000
C      -45.65830000     -31.31480000     -70.63140000
C      -45.87230000     -30.09850000     -70.04450000
S      -42.53070000     -29.90730000     -72.57100000
S      -44.86030000     -28.85290000     -70.65920000
H      -46.58680000     -29.88920000     -69.30660000
