40
Properties=species:S:1:pos:R:3 #=T CELL(abcABC):=T 1.889726e+02=T 90.00000=T Traj:=T positionsangstrom=T Step:=T 0=T Bead:=T pbc="F F F"
C      -46.63020000     -33.57790000     -75.25210000
C      -47.15070000     -33.62490000     -73.91580000
C      -47.26420000     -32.43770000     -73.17360000
C      -46.71310000     -31.23390000     -73.61530000
C      -46.03130000     -31.21890000     -74.87780000
C      -45.98490000     -32.44300000     -75.66020000
H      -46.61150000     -34.40090000     -75.91390000
H      -47.70640000     -32.50140000     -72.19310000
H      -45.61000000     -30.34000000     -75.30950000
H      -45.44260000     -32.44290000     -76.63440000
C      -46.69640000     -29.91170000     -72.82710000
H      -47.45340000     -29.88400000     -72.02300000
H      -46.87570000     -29.06700000     -73.59330000
C      -47.94070000     -34.85990000     -73.44360000
H      -48.64090000     -35.05780000     -74.21530000
H      -47.24590000     -35.75010000     -73.33790000
S      -45.06450000     -29.53910000     -71.99460000
S      -48.92500000     -34.71940000     -71.87770000
C      -44.78750000     -31.02060000     -70.89250000
H      -44.44180000     -30.60090000     -70.01770000
H      -45.78460000     -31.38180000     -70.60890000
C      -47.71220000     -35.09210000     -70.45580000
H      -47.70290000     -36.16840000     -70.37490000
H      -48.35180000     -34.81640000     -69.53490000
C      -46.33610000     -34.45970000     -70.65830000
H      -45.92190000     -34.61770000     -71.69350000
H      -46.44420000     -33.35470000     -70.52710000
C      -43.84210000     -32.15740000     -71.50030000
H      -42.99970000     -31.55150000     -71.85020000
H      -44.37240000     -32.47300000     -72.40320000
C      -43.29790000     -33.18090000     -70.51360000
C      -42.06800000     -32.94190000     -69.96910000
C      -43.89980000     -34.27650000     -69.75850000
H      -41.40410000     -32.14550000     -70.28110000
C      -42.99900000     -35.01360000     -68.91320000
C      -45.18290000     -34.91750000     -69.77690000
C      -45.25320000     -35.96910000     -68.91450000
S      -41.47600000     -34.14450000     -68.78390000
S      -43.73880000     -36.31670000     -68.02110000
H      -46.14150000     -36.54190000     -68.67750000
