40
Properties=species:S:1:pos:R:3 #=T CELL(abcABC):=T 1.889726e+02=T 90.00000=T Traj:=T positionsangstrom=T Step:=T 0=T Bead:=T pbc="F F F"
C      -46.18910000     -35.35650000     -68.84540000
C      -47.17390000     -35.58890000     -69.86310000
C      -46.79620000     -36.26290000     -71.05080000
C      -45.52990000     -36.83160000     -71.14890000
C      -44.62900000     -36.67030000     -70.07290000
C      -44.95290000     -35.95650000     -68.92080000
H      -46.57110000     -34.78670000     -67.98570000
H      -47.45930000     -36.33660000     -71.87560000
H      -43.67310000     -37.14690000     -70.23810000
H      -44.18690000     -35.73580000     -68.15370000
C      -44.95150000     -37.63190000     -72.35380000
H      -45.75370000     -37.87220000     -73.04420000
H      -44.43830000     -38.52200000     -72.01550000
C      -48.59340000     -35.08700000     -69.68710000
H      -49.39370000     -35.79640000     -69.96640000
H      -48.78440000     -35.02460000     -68.60990000
S      -43.66750000     -36.54410000     -73.26180000
S      -49.16320000     -33.52990000     -70.50500000
C      -44.21210000     -34.73020000     -73.39530000
H      -43.47870000     -34.23880000     -74.12790000
H      -45.27260000     -34.69180000     -73.84670000
C      -47.59810000     -32.67940000     -71.23960000
H      -48.01630000     -31.76290000     -71.62300000
H      -47.23720000     -33.30290000     -72.06840000
C      -46.63490000     -32.30990000     -70.12300000
H      -47.09870000     -31.94110000     -69.18860000
H      -46.20170000     -33.26420000     -69.81320000
C      -44.05630000     -34.00580000     -72.01700000
H      -43.15470000     -34.30140000     -71.51680000
H      -44.97420000     -34.14390000     -71.33050000
C      -43.76360000     -32.51270000     -72.08470000
C      -42.59370000     -32.04610000     -72.66070000
C      -44.43910000     -31.47460000     -71.37370000
H      -41.87380000     -32.64270000     -73.27660000
C      -43.91500000     -30.19120000     -71.62780000
C      -45.67810000     -31.32830000     -70.67600000
C      -46.03220000     -30.02760000     -70.44470000
S      -42.45040000     -30.27910000     -72.62730000
S      -44.83490000     -28.85060000     -71.11800000
H      -47.02310000     -29.85570000     -70.08180000
