40
Properties=species:S:1:pos:R:3 #=T CELL(abcABC):=T 1.889726e+02=T 90.00000=T Traj:=T positionsangstrom=T Step:=T 0=T Bead:=T pbc="F F F"
C      -46.25890000     -35.54160000     -68.42210000
C      -47.04700000     -35.37880000     -69.58640000
C      -46.70130000     -36.10240000     -70.69450000
C      -45.53900000     -36.91150000     -70.69020000
C      -44.72360000     -36.98420000     -69.58720000
C      -45.12850000     -36.34170000     -68.36830000
H      -46.60510000     -34.96230000     -67.56810000
H      -47.25320000     -35.95020000     -71.59940000
H      -43.83500000     -37.54980000     -69.49500000
H      -44.58820000     -36.38740000     -67.41390000
C      -45.12670000     -37.48580000     -71.98510000
H      -45.99890000     -37.69500000     -72.61750000
H      -44.67500000     -38.42110000     -71.85140000
C      -48.29730000     -34.48320000     -69.45630000
H      -49.07510000     -35.09220000     -68.97190000
H      -47.95180000     -33.59190000     -68.92550000
S      -43.73670000     -36.53680000     -72.91010000
S      -48.96460000     -33.94680000     -71.06890000
C      -44.24930000     -34.70690000     -72.81750000
H      -43.95730000     -34.43340000     -73.82460000
H      -45.35490000     -34.70060000     -72.83520000
C      -47.45770000     -32.95450000     -71.65550000
H      -47.84870000     -32.24150000     -72.42760000
H      -46.68190000     -33.55800000     -72.05380000
C      -46.72250000     -32.29280000     -70.46650000
H      -47.40060000     -31.93520000     -69.63590000
H      -46.09230000     -33.08310000     -69.91950000
C      -43.73140000     -33.87860000     -71.60280000
H      -42.77530000     -34.32320000     -71.21360000
H      -44.47390000     -34.07550000     -70.82670000
C      -43.54690000     -32.41390000     -71.87340000
C      -42.35590000     -31.97330000     -72.34140000
C      -44.57090000     -31.35950000     -71.63020000
H      -41.45270000     -32.55700000     -72.55340000
C      -44.10460000     -30.12660000     -72.19060000
C      -45.81750000     -31.20510000     -70.96210000
C      -46.22460000     -29.86810000     -71.00570000
S      -42.44230000     -30.24490000     -72.82190000
S      -45.07050000     -28.77730000     -71.69390000
H      -47.06290000     -29.33710000     -70.57090000
