40
Properties=species:S:1:pos:R:3 #=T CELL(abcABC):=T 1.889726e+02=T 90.00000=T Traj:=T positionsangstrom=T Step:=T 0=T Bead:=T pbc="F F F"
C      -46.48130000     -35.77280000     -68.43040000
C      -47.24150000     -35.63600000     -69.60780000
C      -46.64140000     -36.23460000     -70.75020000
C      -45.38120000     -36.84190000     -70.73670000
C      -44.64080000     -36.83470000     -69.49900000
C      -45.19100000     -36.34500000     -68.35920000
H      -46.85480000     -35.36300000     -67.47690000
H      -47.28780000     -36.21020000     -71.66580000
H      -43.67070000     -37.35570000     -69.43980000
H      -44.73160000     -36.52100000     -67.39320000
C      -44.67280000     -37.47250000     -71.89400000
H      -45.36380000     -37.63630000     -72.70080000
H      -44.18900000     -38.43330000     -71.61000000
C      -48.50380000     -34.88750000     -69.53160000
H      -49.35750000     -35.61040000     -69.43270000
H      -48.48620000     -34.21580000     -68.67080000
S      -43.37000000     -36.43000000     -72.61220000
S      -49.11290000     -33.94050000     -71.00580000
C      -44.11060000     -34.72280000     -72.62870000
H      -43.76310000     -34.24580000     -73.50900000
H      -45.16940000     -34.84230000     -72.73450000
C      -47.73360000     -32.77920000     -71.49740000
H      -48.24380000     -32.14080000     -72.14240000
H      -47.01450000     -33.39920000     -72.09740000
C      -46.83530000     -32.09610000     -70.41920000
H      -47.40360000     -31.52680000     -69.60390000
H      -46.29080000     -32.88340000     -69.93510000
C      -43.86690000     -33.84470000     -71.39190000
H      -43.00320000     -34.19890000     -70.87850000
H      -44.71140000     -33.67100000     -70.74150000
C      -43.65170000     -32.42180000     -71.85760000
C      -42.51710000     -31.99160000     -72.46440000
C      -44.54470000     -31.28240000     -71.60250000
H      -41.67400000     -32.61390000     -72.82760000
C      -44.01040000     -30.08960000     -72.10060000
C      -45.89950000     -31.13530000     -71.08620000
C      -46.27320000     -29.80210000     -71.32200000
S      -42.44920000     -30.34040000     -72.94640000
S      -45.01710000     -28.71840000     -71.99950000
H      -47.22440000     -29.28790000     -71.11140000
