40
Properties=species:S:1:pos:R:3 #=T CELL(abcABC):=T 1.889726e+02=T 90.00000=T Traj:=T positionsangstrom=T Step:=T 0=T Bead:=T pbc="F F F"
C      -46.33480000     -35.47090000     -68.46090000
C      -47.21000000     -35.61870000     -69.54440000
C      -46.71890000     -36.26820000     -70.67870000
C      -45.45590000     -36.88220000     -70.66680000
C      -44.63630000     -36.81790000     -69.54870000
C      -45.14350000     -36.16660000     -68.39910000
H      -46.63890000     -34.97450000     -67.55310000
H      -47.26250000     -36.40650000     -71.64580000
H      -43.57490000     -37.07550000     -69.44230000
H      -44.56720000     -36.17260000     -67.47110000
C      -44.91960000     -37.42930000     -71.97610000
H      -45.64260000     -37.38600000     -72.79300000
H      -44.63890000     -38.49400000     -71.82580000
C      -48.60860000     -34.99150000     -69.58690000
H      -49.23050000     -35.90910000     -69.69160000
H      -48.79290000     -34.46680000     -68.63220000
S      -43.28930000     -36.53980000     -72.40900000
S      -48.97660000     -33.88740000     -71.07270000
C      -43.79830000     -34.76530000     -72.73610000
H      -43.09410000     -34.44360000     -73.48360000
H      -44.81030000     -34.93080000     -73.30100000
C      -47.45290000     -33.03680000     -71.60790000
H      -47.66460000     -32.49900000     -72.53180000
H      -46.63760000     -33.73090000     -71.92130000
C      -46.94150000     -32.07110000     -70.56160000
H      -47.84160000     -31.58010000     -70.12540000
H      -46.59290000     -32.60130000     -69.66350000
C      -43.84780000     -33.85200000     -71.50770000
H      -42.92160000     -34.20590000     -70.91150000
H      -44.64370000     -34.09000000     -70.82380000
C      -43.70550000     -32.37890000     -71.85760000
C      -42.49480000     -31.99920000     -72.32900000
C      -44.66760000     -31.29750000     -71.75830000
H      -41.58100000     -32.59940000     -72.36790000
C      -44.14600000     -30.09950000     -72.22960000
C      -45.92980000     -31.08500000     -71.07180000
C      -46.29010000     -29.73730000     -71.17750000
S      -42.51560000     -30.29570000     -72.81200000
S      -45.16170000     -28.76620000     -72.04160000
H      -47.23950000     -29.34440000     -70.87370000
