40
Properties=species:S:1:pos:R:3 #=T CELL(abcABC):=T 1.889726e+02=T 90.00000=T Traj:=T positionsangstrom=T Step:=T 0=T Bead:=T pbc="F F F"
C      -46.55900000     -35.31530000     -68.25740000
C      -47.22960000     -35.38880000     -69.48890000
C      -46.61130000     -35.91990000     -70.61560000
C      -45.34020000     -36.58050000     -70.51610000
C      -44.78180000     -36.57890000     -69.21910000
C      -45.38390000     -35.95420000     -68.13740000
H      -47.07520000     -34.97970000     -67.35260000
H      -47.26550000     -35.78320000     -71.53070000
H      -43.80760000     -37.00400000     -69.14800000
H      -44.88330000     -36.12560000     -67.17520000
C      -44.67460000     -37.23880000     -71.76680000
H      -45.28870000     -37.33000000     -72.65260000
H      -44.43000000     -38.30060000     -71.46870000
C      -48.67910000     -34.85040000     -69.54800000
H      -49.33430000     -35.75900000     -69.49810000
H      -48.82840000     -34.11210000     -68.71250000
S      -43.06190000     -36.45640000     -72.26900000
S      -49.17100000     -34.15540000     -71.15640000
C      -43.48360000     -34.74110000     -72.61790000
H      -42.79760000     -34.47430000     -73.34590000
H      -44.44810000     -34.63290000     -73.15800000
C      -47.85130000     -32.96520000     -71.64650000
H      -48.42150000     -32.02140000     -71.76050000
H      -47.59080000     -33.20020000     -72.71120000
C      -46.72110000     -32.64870000     -70.70370000
H      -47.02420000     -32.35430000     -69.68200000
H      -46.02980000     -33.42620000     -70.57400000
C      -43.27350000     -33.78350000     -71.39790000
H      -42.23080000     -33.86560000     -71.07420000
H      -43.91340000     -34.15250000     -70.56770000
C      -43.40000000     -32.33450000     -71.90160000
C      -42.31640000     -31.86170000     -72.57040000
C      -44.53620000     -31.45440000     -71.79150000
H      -41.40740000     -32.31680000     -72.69750000
C      -44.18590000     -30.20610000     -72.35350000
C      -45.92200000     -31.47650000     -71.31780000
C      -46.53110000     -30.26970000     -71.47150000
S      -42.56490000     -30.05360000     -72.91000000
S      -45.48380000     -29.00040000     -72.16370000
H      -47.61730000     -30.21020000     -71.23050000
