40
Properties=species:S:1:pos:R:3 #=T CELL(abcABC):=T 1.889726e+02=T 90.00000=T Traj:=T positionsangstrom=T Step:=T 0=T Bead:=T pbc="F F F"
C      -46.44280000     -35.81910000     -68.07360000
C      -47.11260000     -35.64760000     -69.29590000
C      -46.41650000     -36.04290000     -70.45860000
C      -45.10970000     -36.54010000     -70.40470000
C      -44.40630000     -36.44460000     -69.17650000
C      -45.08640000     -36.13470000     -67.94410000
H      -46.92900000     -35.40090000     -67.23520000
H      -46.94220000     -36.23920000     -71.42750000
H      -43.39470000     -36.67730000     -69.11230000
H      -44.70390000     -36.00950000     -66.93270000
C      -44.50120000     -37.24100000     -71.56760000
H      -45.26920000     -37.35160000     -72.40150000
H      -44.21940000     -38.24690000     -71.28520000
C      -48.45070000     -35.07620000     -69.29530000
H      -49.21960000     -35.83940000     -68.96630000
H      -48.54990000     -34.39040000     -68.37330000
S      -42.96650000     -36.44700000     -72.34180000
S      -49.11720000     -34.10180000     -70.69410000
C      -43.54360000     -34.76610000     -72.85590000
H      -42.98540000     -34.38140000     -73.71650000
H      -44.63530000     -34.76910000     -73.25980000
C      -48.06790000     -32.60760000     -70.68920000
H      -47.81040000     -32.23520000     -69.68520000
H      -48.74680000     -31.83450000     -71.10970000
C      -46.84920000     -32.86040000     -71.67090000
H      -46.19410000     -33.62040000     -71.15040000
H      -47.15310000     -33.34250000     -72.58800000
C      -43.45430000     -33.76190000     -71.65430000
H      -42.56870000     -34.06350000     -71.11020000
H      -44.33390000     -33.97210000     -70.97110000
C      -43.48450000     -32.26280000     -72.04980000
C      -42.36000000     -31.51800000     -72.32320000
C      -44.66410000     -31.43680000     -72.17470000
H      -41.29750000     -31.81530000     -72.21620000
C      -44.38660000     -30.09890000     -72.56680000
C      -46.12590000     -31.57970000     -72.01640000
C      -46.76670000     -30.34110000     -72.16010000
S      -42.64060000     -29.87440000     -72.64470000
S      -45.63880000     -29.00280000     -72.43870000
H      -47.85230000     -30.20410000     -72.29330000
