40
Properties=species:S:1:pos:R:3 #=T CELL(abcABC):=T 1.889726e+02=T 90.00000=T Traj:=T positionsangstrom=T Step:=T 0=T Bead:=T pbc="F F F"
C      -45.88140000     -34.31070000     -74.32190000
C      -44.67930000     -34.95170000     -74.08500000
C      -44.75580000     -36.01410000     -73.14970000
C      -45.89070000     -36.27280000     -72.37530000
C      -47.06910000     -35.51330000     -72.60940000
C      -47.05340000     -34.53340000     -73.58730000
H      -45.94440000     -33.58890000     -75.11800000
H      -43.83610000     -36.54450000     -72.79500000
H      -47.95700000     -35.63460000     -72.07920000
H      -47.93430000     -33.99590000     -73.88490000
C      -45.73980000     -37.28110000     -71.18800000
H      -45.15220000     -38.19610000     -71.59100000
H      -46.74060000     -37.61600000     -70.79660000
C      -43.43420000     -34.63860000     -74.83460000
H      -42.75620000     -35.45180000     -75.14130000
H      -43.81020000     -34.04910000     -75.65410000
S      -44.76040000     -36.53410000     -69.76050000
S      -42.19140000     -33.60290000     -73.77060000
C      -45.77980000     -35.02890000     -69.27550000
H      -46.25370000     -34.74760000     -70.29080000
H      -46.65170000     -35.38590000     -68.66740000
C      -43.16540000     -32.21350000     -72.93820000
H      -43.67360000     -31.88220000     -73.86100000
H      -42.46310000     -31.51210000     -72.50940000
C      -43.95240000     -32.71210000     -71.79720000
H      -44.51600000     -33.64050000     -72.06770000
H      -43.26090000     -33.03900000     -70.96240000
C      -44.90110000     -34.01230000     -68.63760000
H      -44.01920000     -34.05910000     -69.31030000
H      -44.64560000     -34.16800000     -67.59330000
C      -45.56570000     -32.71990000     -68.82920000
C      -46.52300000     -32.28580000     -67.93600000
C      -45.53570000     -31.78080000     -69.98200000
H      -46.90780000     -32.86780000     -67.02100000
C      -46.42950000     -30.73720000     -69.76230000
C      -44.94120000     -31.73830000     -71.31440000
C      -45.33940000     -30.57920000     -71.98650000
S      -47.45620000     -30.87680000     -68.36360000
S      -46.53520000     -29.60190000     -71.06520000
H      -44.88350000     -30.19360000     -72.86870000
