40
Properties=species:S:1:pos:R:3 #=T CELL(abcABC):=T 1.889726e+02=T 90.00000=T Traj:=T positionsangstrom=T Step:=T 0=T Bead:=T pbc="F F F"
C      -46.36590000     -35.45930000     -68.09600000
C      -47.04710000     -35.51250000     -69.31010000
C      -46.48560000     -36.06760000     -70.44790000
C      -45.24620000     -36.66250000     -70.38850000
C      -44.56560000     -36.70740000     -69.17760000
C      -45.09840000     -36.10590000     -68.03790000
H      -46.85820000     -35.15880000     -67.20780000
H      -46.98660000     -36.07590000     -71.38370000
H      -43.61320000     -37.19400000     -69.23260000
H      -44.61460000     -36.25360000     -67.04810000
C      -44.62780000     -37.21390000     -71.70820000
H      -45.30310000     -36.99320000     -72.49300000
H      -44.46730000     -38.29670000     -71.60420000
C      -48.49180000     -35.11310000     -69.31830000
H      -49.01530000     -36.01330000     -69.50990000
H      -48.88070000     -34.76740000     -68.34380000
S      -42.96110000     -36.52270000     -72.17630000
S      -49.10910000     -34.26000000     -70.89550000
C      -43.35770000     -34.71560000     -72.91780000
H      -42.51970000     -34.56610000     -73.54600000
H      -44.22100000     -34.88510000     -73.53240000
C      -48.15010000     -32.65290000     -70.91020000
H      -48.18600000     -32.26140000     -69.92260000
H      -48.74450000     -31.93070000     -71.53400000
C      -46.68000000     -32.76730000     -71.37600000
H      -46.00150000     -33.14650000     -70.61740000
H      -46.54230000     -33.49960000     -72.19540000
C      -43.55450000     -33.71720000     -71.81120000
H      -42.69730000     -33.78170000     -71.13070000
H      -44.42720000     -33.95350000     -71.21820000
C      -43.55470000     -32.25720000     -72.09070000
C      -42.41830000     -31.64780000     -72.48000000
C      -44.65540000     -31.36570000     -72.01130000
H      -41.45790000     -32.25300000     -72.42010000
C      -44.32830000     -30.05560000     -72.32460000
C      -46.06180000     -31.48690000     -71.77470000
C      -46.75530000     -30.29860000     -71.93080000
S      -42.59210000     -29.85360000     -72.66300000
S      -45.63610000     -28.90830000     -72.45390000
H      -47.76110000     -30.03120000     -71.85340000
