40
Properties=species:S:1:pos:R:3 #=T CELL(abcABC):=T 1.889726e+02=T 90.00000=T Traj:=T positionsangstrom=T Step:=T 0=T Bead:=T pbc="F F F"
C      -45.62730000     -35.38290000     -67.95000000
C      -46.64600000     -35.36620000     -68.89100000
C      -46.51260000     -36.07170000     -70.09310000
C      -45.33200000     -36.74420000     -70.40310000
C      -44.29100000     -36.81060000     -69.45150000
C      -44.48920000     -36.12020000     -68.29090000
H      -45.73150000     -34.99030000     -66.96220000
H      -47.34820000     -36.10260000     -70.71740000
H      -43.44380000     -37.20800000     -69.82440000
H      -43.68550000     -36.24070000     -67.60030000
C      -45.14450000     -37.26510000     -71.81460000
H      -46.11720000     -37.19000000     -72.37120000
H      -44.97040000     -38.33900000     -71.75740000
C      -48.03050000     -34.81120000     -68.55460000
H      -48.82390000     -35.69120000     -68.50440000
H      -47.90310000     -34.26930000     -67.65700000
S      -43.71760000     -36.56890000     -72.76610000
S      -48.75330000     -33.71140000     -69.81320000
C      -44.10740000     -34.77030000     -73.05110000
H      -43.42950000     -34.48540000     -73.88800000
H      -45.16970000     -34.71100000     -73.27410000
C      -47.45010000     -32.56740000     -70.40240000
H      -46.53310000     -32.73490000     -69.88230000
H      -47.79140000     -31.55850000     -70.18470000
C      -47.10420000     -32.67820000     -71.90810000
H      -46.72830000     -33.69110000     -72.17980000
H      -48.01230000     -32.50820000     -72.44150000
C      -43.83090000     -33.87490000     -71.75760000
H      -42.95010000     -34.34700000     -71.36650000
H      -44.68190000     -34.02510000     -71.09340000
C      -43.67710000     -32.36140000     -72.03890000
C      -42.44220000     -31.74540000     -72.09580000
C      -44.72770000     -31.46880000     -72.27840000
H      -41.55580000     -32.27750000     -71.99370000
C      -44.28580000     -30.22580000     -72.62250000
C      -46.19580000     -31.60440000     -72.33100000
C      -46.73950000     -30.42230000     -72.75530000
S      -42.53210000     -29.95510000     -72.40830000
S      -45.58910000     -29.14350000     -72.99620000
H      -47.73380000     -30.19830000     -72.73220000
