40
Properties=species:S:1:pos:R:3 #=T CELL(abcABC):=T 1.889726e+02=T 90.00000=T Traj:=T positionsangstrom=T Step:=T 0=T Bead:=T pbc="F F F"
C      -45.54890000     -35.58720000     -67.84970000
C      -46.54570000     -35.31500000     -68.81760000
C      -46.47200000     -35.97830000     -70.11250000
C      -45.30300000     -36.67840000     -70.45050000
C      -44.23230000     -36.77940000     -69.49780000
C      -44.38270000     -36.32330000     -68.16230000
H      -45.66040000     -35.04930000     -66.93450000
H      -47.16720000     -35.85700000     -70.92550000
H      -43.40970000     -37.36290000     -69.79410000
H      -43.67480000     -36.44090000     -67.38460000
C      -45.19330000     -37.22020000     -71.80710000
H      -46.11140000     -37.20160000     -72.35540000
H      -44.81840000     -38.27500000     -71.77930000
C      -47.78820000     -34.57680000     -68.38570000
H      -48.49810000     -35.31250000     -67.94730000
H      -47.57330000     -33.90480000     -67.54950000
S      -43.78920000     -36.58120000     -72.83010000
S      -48.73950000     -33.73030000     -69.75210000
C      -44.23950000     -34.78180000     -72.92220000
H      -43.86250000     -34.37720000     -73.86190000
H      -45.27710000     -34.75770000     -73.09430000
C      -47.52980000     -32.41720000     -70.32200000
H      -46.64630000     -32.39380000     -69.61300000
H      -48.00240000     -31.43430000     -70.17440000
C      -47.02550000     -32.64860000     -71.76880000
H      -46.32980000     -33.50940000     -71.74850000
H      -47.84060000     -32.85330000     -72.43470000
C      -43.75760000     -33.96850000     -71.75560000
H      -42.70550000     -34.14580000     -71.59560000
H      -44.23670000     -34.28500000     -70.78990000
C      -43.77830000     -32.42130000     -72.06900000
C      -42.55330000     -31.75380000     -72.11660000
C      -44.83130000     -31.47880000     -72.41710000
H      -41.69190000     -32.25360000     -72.01950000
C      -44.28750000     -30.24560000     -72.75320000
C      -46.25460000     -31.49930000     -72.32890000
C      -46.83490000     -30.29390000     -72.69970000
S      -42.57570000     -30.09920000     -72.58000000
S      -45.55650000     -29.12640000     -73.04170000
H      -47.81840000     -29.97410000     -72.82490000
