40
Properties=species:S:1:pos:R:3 #=T CELL(abcABC):=T 1.889726e+02=T 90.00000=T Traj:=T positionsangstrom=T Step:=T 0=T Bead:=T pbc="F F F"
C      -45.55680000     -35.07310000     -74.33850000
C      -44.27860000     -35.44610000     -73.86310000
C      -44.10030000     -36.32110000     -72.74500000
C      -45.23990000     -36.61670000     -71.98600000
C      -46.52520000     -36.20260000     -72.35880000
C      -46.68810000     -35.44830000     -73.57800000
H      -45.72260000     -34.45300000     -75.21490000
H      -43.07760000     -36.68540000     -72.58550000
H      -47.36170000     -36.40810000     -71.66780000
H      -47.65330000     -35.21870000     -73.90550000
C      -45.07410000     -37.42650000     -70.68580000
H      -44.14130000     -37.94690000     -70.71930000
H      -46.01240000     -37.92440000     -70.49460000
C      -43.12520000     -34.84840000     -74.65090000
H      -42.39900000     -35.61880000     -74.98290000
H      -43.55170000     -34.37690000     -75.56080000
S      -44.69020000     -36.32940000     -69.21180000
S      -42.18790000     -33.61010000     -73.59840000
C      -45.86500000     -34.94500000     -69.42640000
H      -46.19450000     -34.84910000     -70.49370000
H      -46.80750000     -35.07090000     -68.91650000
C      -43.72430000     -32.38930000     -73.34030000
H      -44.48730000     -32.64240000     -74.05670000
H      -43.32300000     -31.39780000     -73.42660000
C      -44.26150000     -32.52620000     -71.89990000
H      -44.51150000     -33.59610000     -71.65160000
H      -43.52900000     -32.25770000     -71.17030000
C      -45.19650000     -33.70860000     -68.84510000
H      -44.18920000     -33.65950000     -69.18630000
H      -44.99990000     -33.83990000     -67.73460000
C      -45.96660000     -32.43340000     -69.05190000
C      -46.69570000     -31.95040000     -68.02350000
C      -46.09270000     -31.62630000     -70.28950000
H      -46.80570000     -32.49280000     -67.06860000
C      -46.82980000     -30.45480000     -70.14300000
C      -45.36030000     -31.56710000     -71.59150000
C      -45.76690000     -30.52550000     -72.36220000
S      -47.52580000     -30.45170000     -68.52870000
S      -46.68870000     -29.34010000     -71.40840000
H      -45.33260000     -30.22900000     -73.35560000
