40
Properties=species:S:1:pos:R:3 #=T CELL(abcABC):=T 1.889726e+02=T 90.00000=T Traj:=T positionsangstrom=T Step:=T 0=T Bead:=T pbc="F F F"
C      -45.62510000     -34.92150000     -74.14800000
C      -44.37270000     -35.45530000     -73.76120000
C      -44.18760000     -36.28340000     -72.64940000
C      -45.28690000     -36.75920000     -71.94650000
C      -46.63170000     -36.28890000     -72.28110000
C      -46.77250000     -35.39920000     -73.38340000
H      -45.65730000     -34.25800000     -75.01530000
H      -43.23710000     -36.55940000     -72.31490000
H      -47.54790000     -36.56200000     -71.78380000
H      -47.68250000     -35.06380000     -73.67200000
C      -45.13070000     -37.53880000     -70.63920000
H      -44.41240000     -38.36160000     -70.69220000
H      -46.11060000     -38.14620000     -70.49840000
C      -43.15780000     -35.07670000     -74.49740000
H      -42.30260000     -35.77310000     -74.48030000
H      -43.44020000     -34.87270000     -75.51890000
S      -44.69930000     -36.45860000     -69.25230000
S      -42.26290000     -33.58340000     -73.75600000
C      -45.89490000     -35.01800000     -69.31070000
H      -46.42250000     -34.98020000     -70.31230000
H      -46.65240000     -35.18450000     -68.56820000
C      -43.48210000     -32.27230000     -73.40340000
H      -44.28200000     -32.43450000     -74.16760000
H      -42.98020000     -31.29470000     -73.60690000
C      -44.07200000     -32.35520000     -71.91370000
H      -44.58880000     -33.33600000     -71.85500000
H      -43.12680000     -32.45890000     -71.38590000
C      -45.11390000     -33.70360000     -69.01320000
H      -44.46160000     -33.55150000     -69.85610000
H      -44.56320000     -33.80070000     -68.10660000
C      -45.99630000     -32.40960000     -69.10580000
C      -46.90820000     -31.99280000     -68.20180000
C      -45.76430000     -31.42660000     -70.15200000
H      -47.18770000     -32.49560000     -67.27490000
C      -46.70290000     -30.38730000     -70.10660000
C      -44.99110000     -31.30300000     -71.38210000
C      -45.47860000     -30.28740000     -72.16470000
S      -47.61170000     -30.46300000     -68.61510000
S      -46.81540000     -29.44510000     -71.53950000
H      -45.27720000     -30.08480000     -73.19280000
