40
Properties=species:S:1:pos:R:3 #=T CELL(abcABC):=T 1.889726e+02=T 90.00000=T Traj:=T positionsangstrom=T Step:=T 0=T Bead:=T pbc="F F F"
C      -45.49410000     -35.11650000     -74.49810000
C      -44.22660000     -35.40390000     -73.92360000
C      -44.09960000     -36.07820000     -72.70600000
C      -45.26850000     -36.56780000     -72.07920000
C      -46.53550000     -36.29690000     -72.58890000
C      -46.62590000     -35.58280000     -73.82310000
H      -45.55940000     -34.54870000     -75.41350000
H      -43.07610000     -36.14530000     -72.18480000
H      -47.39030000     -36.75330000     -72.12090000
H      -47.58670000     -35.35010000     -74.36390000
C      -45.01960000     -37.37920000     -70.86640000
H      -44.20390000     -38.17350000     -71.03980000
H      -45.79000000     -38.01090000     -70.46950000
C      -43.00700000     -34.83220000     -74.59080000
H      -42.24010000     -35.53890000     -74.76880000
H      -43.21280000     -34.39450000     -75.57530000
S      -44.57170000     -36.36380000     -69.35830000
S      -42.30110000     -33.51540000     -73.55950000
C      -45.65760000     -34.85310000     -69.44950000
H      -45.76180000     -34.54890000     -70.44190000
H      -46.64290000     -35.07870000     -68.97970000
C      -43.80970000     -32.50270000     -73.26790000
H      -44.52250000     -32.41980000     -74.11730000
H      -43.42690000     -31.46730000     -73.30500000
C      -44.68430000     -32.77720000     -72.01830000
H      -45.44100000     -33.47500000     -72.36210000
H      -44.08990000     -33.36060000     -71.24920000
C      -45.03540000     -33.65990000     -68.74280000
H      -44.03720000     -33.32740000     -69.10850000
H      -44.87620000     -33.91540000     -67.66410000
C      -45.92610000     -32.38160000     -68.89030000
C      -46.69690000     -31.81070000     -67.90960000
C      -45.98860000     -31.65090000     -70.11790000
H      -46.78130000     -32.11660000     -66.85250000
C      -46.80470000     -30.52470000     -70.01600000
C      -45.37520000     -31.63010000     -71.39550000
C      -45.71430000     -30.56460000     -72.14010000
S      -47.49770000     -30.32690000     -68.38930000
S      -46.87380000     -29.47590000     -71.46880000
H      -45.13950000     -30.37430000     -73.11840000
