40
Properties=species:S:1:pos:R:3 #=T CELL(abcABC):=T 1.889726e+02=T 90.00000=T Traj:=T positionsangstrom=T Step:=T 0=T Bead:=T pbc="F F F"
C      -43.88850000     -34.69280000     -68.26300000
C      -45.23800000     -34.91330000     -68.59600000
C      -45.53010000     -35.76560000     -69.63560000
C      -44.57240000     -36.45860000     -70.31900000
C      -43.18950000     -36.24140000     -69.99020000
C      -42.89370000     -35.32630000     -69.02500000
H      -43.60050000     -34.04350000     -67.40660000
H      -46.61480000     -35.99370000     -69.86940000
H      -42.42910000     -36.63020000     -70.57420000
H      -41.87910000     -35.15670000     -68.73000000
C      -45.04130000     -37.49910000     -71.26090000
H      -46.11780000     -37.63550000     -71.15650000
H      -44.46310000     -38.43560000     -71.29220000
C      -46.28210000     -34.31920000     -67.64930000
H      -46.44830000     -35.04120000     -66.83730000
H      -45.93790000     -33.34550000     -67.20350000
S      -44.75940000     -36.90930000     -73.05970000
S      -47.90820000     -33.90920000     -68.38040000
C      -45.16200000     -35.09360000     -73.24270000
H      -45.34750000     -34.99260000     -74.26360000
H      -46.18980000     -34.93410000     -72.77250000
C      -47.28170000     -32.44300000     -69.29830000
H      -46.86730000     -31.67700000     -68.66380000
H      -48.12990000     -32.08080000     -69.88650000
C      -46.39700000     -32.74640000     -70.45050000
H      -45.36440000     -33.02900000     -70.07480000
H      -46.73970000     -33.63490000     -71.09220000
C      -44.20050000     -34.07320000     -72.71370000
H      -43.14700000     -34.29230000     -72.97120000
H      -44.13070000     -34.14990000     -71.56800000
C      -44.39030000     -32.58190000     -73.14940000
C      -43.74020000     -32.03450000     -74.19890000
C      -45.26250000     -31.61930000     -72.49020000
H      -42.99800000     -32.57670000     -74.88900000
C      -45.05390000     -30.30780000     -73.02870000
C      -46.20930000     -31.59530000     -71.36920000
C      -46.74690000     -30.34400000     -71.23070000
S      -44.00360000     -30.32290000     -74.50910000
S      -46.27480000     -29.16580000     -72.47310000
H      -47.50160000     -30.02410000     -70.50050000
