40
Properties=species:S:1:pos:R:3 #=T CELL(abcABC):=T 1.889726e+02=T 90.00000=T Traj:=T positionsangstrom=T Step:=T 0=T Bead:=T pbc="F F F"
C      -44.32940000     -34.83330000     -67.73680000
C      -45.63820000     -35.14750000     -68.16500000
C      -45.85200000     -35.86860000     -69.37580000
C      -44.77570000     -36.32190000     -70.16500000
C      -43.45800000     -36.10430000     -69.63960000
C      -43.20780000     -35.38350000     -68.46010000
H      -44.15760000     -34.36730000     -66.74840000
H      -46.81990000     -36.01910000     -69.68160000
H      -42.54360000     -36.49190000     -70.17700000
H      -42.23260000     -35.15150000     -68.06540000
C      -44.97180000     -37.25080000     -71.35000000
H      -46.10140000     -37.31580000     -71.48040000
H      -44.41960000     -38.18420000     -71.25720000
C      -46.94530000     -34.61200000     -67.48560000
H      -47.45060000     -35.44660000     -67.08990000
H      -46.65560000     -33.79780000     -66.76400000
S      -44.35810000     -36.73270000     -73.05350000
S      -48.16200000     -33.81110000     -68.58700000
C      -44.80440000     -34.92150000     -73.19930000
H      -44.91830000     -34.70990000     -74.26580000
H      -45.72790000     -34.73300000     -72.71330000
C      -47.33300000     -32.41610000     -69.35820000
H      -46.79510000     -31.70490000     -68.70370000
H      -48.16200000     -31.89470000     -69.82910000
C      -46.37980000     -32.68420000     -70.61130000
H      -45.39280000     -33.10700000     -70.34660000
H      -46.82330000     -33.39060000     -71.26280000
C      -43.84170000     -34.01800000     -72.48980000
H      -42.78590000     -34.18870000     -72.67990000
H      -43.99060000     -34.04110000     -71.44500000
C      -44.07110000     -32.58870000     -73.06170000
C      -43.37880000     -32.09410000     -74.13210000
C      -45.12550000     -31.64050000     -72.63640000
H      -42.59500000     -32.56520000     -74.63340000
C      -44.95600000     -30.42550000     -73.32740000
C      -46.11400000     -31.55870000     -71.55050000
C      -46.76140000     -30.30870000     -71.49960000
S      -43.87720000     -30.47190000     -74.68780000
S      -46.18320000     -29.26350000     -72.76840000
H      -47.66740000     -29.98940000     -71.01830000
