40
Properties=species:S:1:pos:R:3 #=T CELL(abcABC):=T 1.889726e+02=T 90.00000=T Traj:=T positionsangstrom=T Step:=T 0=T Bead:=T pbc="F F F"
C      -43.89210000     -34.99660000     -67.93150000
C      -45.27570000     -34.94650000     -68.33010000
C      -45.64550000     -35.66510000     -69.50010000
C      -44.61970000     -36.29410000     -70.29270000
C      -43.27670000     -36.14810000     -69.98970000
C      -42.91860000     -35.58060000     -68.75220000
H      -43.54530000     -34.53040000     -67.04830000
H      -46.66450000     -35.84440000     -69.73390000
H      -42.47130000     -36.80200000     -70.50440000
H      -41.86320000     -35.43170000     -68.44650000
C      -45.02150000     -37.30700000     -71.30810000
H      -46.02510000     -37.72040000     -71.24580000
H      -44.43030000     -38.20730000     -71.18120000
C      -46.33250000     -34.24670000     -67.49830000
H      -46.63060000     -34.73860000     -66.53890000
H      -46.00840000     -33.20710000     -67.17140000
S      -44.60570000     -36.75900000     -73.07400000
S      -47.94310000     -33.91810000     -68.41340000
C      -45.14980000     -34.99050000     -73.13090000
H      -45.18560000     -34.83300000     -74.28830000
H      -46.14430000     -34.96570000     -72.89820000
C      -47.54620000     -32.49220000     -69.55030000
H      -47.20540000     -31.71700000     -68.84010000
H      -48.49680000     -32.15740000     -69.92170000
C      -46.50360000     -32.72290000     -70.63460000
H      -45.62530000     -33.18140000     -70.04160000
H      -46.91140000     -33.53540000     -71.27060000
C      -44.20040000     -34.01390000     -72.44430000
H      -43.13460000     -34.26020000     -72.67690000
H      -44.42700000     -33.93620000     -71.41200000
C      -44.32670000     -32.59620000     -73.08800000
C      -43.66080000     -32.16430000     -74.18910000
C      -45.18520000     -31.56460000     -72.55920000
H      -42.87260000     -32.60300000     -74.68880000
C      -45.21290000     -30.40540000     -73.29630000
C      -46.17920000     -31.54010000     -71.51400000
C      -46.70950000     -30.24750000     -71.37890000
S      -43.98080000     -30.50050000     -74.56100000
S      -46.16090000     -29.17800000     -72.60400000
H      -47.52170000     -30.04610000     -70.75740000
