40
Properties=species:S:1:pos:R:3 #=T CELL(abcABC):=T 1.889726e+02=T 90.00000=T Traj:=T positionsangstrom=T Step:=T 0=T Bead:=T pbc="F F F"
C      -47.78130000     -33.10160000     -67.97730000
C      -47.00070000     -32.15120000     -68.66270000
C      -47.29040000     -31.85400000     -70.02640000
C      -48.32000000     -32.50330000     -70.74310000
C      -49.14080000     -33.40680000     -69.96570000
C      -48.93380000     -33.53730000     -68.59190000
H      -47.69640000     -33.28980000     -66.92090000
H      -46.83640000     -30.97790000     -70.52890000
H      -50.11270000     -33.81690000     -70.38970000
H      -49.61020000     -34.24500000     -68.08700000
C      -48.52610000     -32.14630000     -72.20080000
H      -48.30500000     -31.06000000     -72.38620000
H      -49.48690000     -32.36680000     -72.52140000
C      -45.86900000     -31.42350000     -67.92710000
H      -45.32290000     -30.59750000     -68.51220000
H      -46.19050000     -30.85480000     -66.97720000
S      -47.43130000     -33.02440000     -73.37920000
S      -44.63520000     -32.74800000     -67.36730000
C      -47.45320000     -34.83000000     -72.79770000
H      -48.32500000     -34.91330000     -72.07840000
H      -47.78300000     -35.47530000     -73.63340000
C      -43.49520000     -32.73110000     -68.81390000
H      -42.56800000     -33.27350000     -68.53160000
H      -43.28980000     -31.69790000     -69.04890000
C      -44.15050000     -33.49580000     -69.97540000
H      -44.40080000     -34.52280000     -69.54920000
H      -45.05560000     -32.94140000     -70.22210000
C      -46.18380000     -35.17200000     -72.07450000
H      -46.22860000     -36.25270000     -71.85840000
H      -46.08200000     -34.55780000     -71.13350000
C      -44.89330000     -34.86710000     -72.91100000
C      -44.87140000     -35.14390000     -74.24130000
C      -43.73070000     -34.14460000     -72.49950000
H      -45.64540000     -35.81530000     -74.70140000
C      -42.78780000     -33.93780000     -73.51220000
C      -43.28410000     -33.61780000     -71.21300000
C      -42.04070000     -33.10320000     -71.29230000
S      -43.35240000     -34.58430000     -75.00850000
S      -41.38730000     -33.10890000     -72.91600000
H      -41.45410000     -32.61030000     -70.55010000
