40
Properties=species:S:1:pos:R:3 #=T CELL(abcABC):=T 1.889726e+02=T 90.00000=T Traj:=T positionsangstrom=T Step:=T 0=T Bead:=T pbc="F F F"
C      -44.55590000     -34.80450000     -67.92140000
C      -45.85850000     -35.09790000     -68.43360000
C      -45.95260000     -36.02800000     -69.45440000
C      -44.80210000     -36.51360000     -70.11190000
C      -43.50230000     -36.25090000     -69.55810000
C      -43.42410000     -35.42870000     -68.41630000
H      -44.59000000     -34.09060000     -67.11280000
H      -46.94690000     -36.30270000     -69.95520000
H      -42.65260000     -36.79300000     -69.90360000
H      -42.47300000     -35.34830000     -67.88570000
C      -44.97090000     -37.37760000     -71.32420000
H      -45.93990000     -37.52620000     -71.72370000
H      -44.54000000     -38.41880000     -71.16670000
C      -47.03920000     -34.56210000     -67.63150000
H      -47.55840000     -35.34740000     -67.05730000
H      -46.70920000     -33.94130000     -66.79190000
S      -44.09300000     -36.76240000     -72.84860000
S      -48.19910000     -33.59510000     -68.64770000
C      -44.84300000     -35.03700000     -72.99680000
H      -45.26900000     -35.08340000     -73.98380000
H      -45.74530000     -35.09250000     -72.36940000
C      -46.97510000     -32.35660000     -69.37640000
H      -46.14880000     -32.33470000     -68.69150000
H      -47.52280000     -31.39810000     -69.35250000
C      -46.63520000     -32.69780000     -70.81680000
H      -45.89960000     -33.49100000     -70.79330000
H      -47.57540000     -33.09910000     -71.21960000
C      -43.91890000     -33.95870000     -72.46450000
H      -42.91430000     -34.16080000     -72.79890000
H      -43.94050000     -34.06520000     -71.37370000
C      -44.20570000     -32.57400000     -73.07730000
C      -43.39240000     -32.20800000     -74.11970000
C      -45.04230000     -31.55220000     -72.51800000
H      -42.69170000     -32.65900000     -74.82990000
C      -44.91050000     -30.41290000     -73.29580000
C      -46.24610000     -31.51990000     -71.71630000
C      -46.91420000     -30.34830000     -71.74940000
S      -43.65130000     -30.40350000     -74.48800000
S      -46.12360000     -29.24780000     -72.84010000
H      -47.62090000     -29.98900000     -71.01750000
