40
Properties=species:S:1:pos:R:3 #=T CELL(abcABC):=T 1.889726e+02=T 90.00000=T Traj:=T positionsangstrom=T Step:=T 0=T Bead:=T pbc="F F F"
C      -43.87430000     -34.71470000     -68.38470000
C      -45.21910000     -35.12380000     -68.44420000
C      -45.58400000     -36.09520000     -69.34060000
C      -44.67780000     -36.59010000     -70.29890000
C      -43.32170000     -36.15820000     -70.19140000
C      -42.88870000     -35.22900000     -69.27290000
H      -43.52440000     -33.95920000     -67.70250000
H      -46.60940000     -36.48810000     -69.34710000
H      -42.57750000     -36.61040000     -70.77790000
H      -41.87790000     -34.93540000     -69.15640000
C      -45.10880000     -37.43430000     -71.50410000
H      -46.20080000     -37.72790000     -71.38730000
H      -44.68260000     -38.40710000     -71.44500000
C      -46.22410000     -34.49410000     -67.51730000
H      -46.54220000     -35.28940000     -66.84520000
H      -45.92820000     -33.62330000     -66.88220000
S      -44.62500000     -36.73110000     -73.13060000
S      -47.74400000     -34.04610000     -68.46420000
C      -45.28130000     -34.95620000     -72.96470000
H      -45.69230000     -34.63740000     -73.93600000
H      -46.15020000     -34.99560000     -72.27720000
C      -47.43150000     -32.42700000     -69.30070000
H      -46.94780000     -31.73810000     -68.58190000
H      -48.44170000     -32.03950000     -69.51860000
C      -46.61590000     -32.70440000     -70.53660000
H      -45.64590000     -33.11070000     -70.17610000
H      -47.12460000     -33.41670000     -71.11230000
C      -44.06990000     -34.00060000     -72.58220000
H      -43.28020000     -34.37080000     -73.16660000
H      -43.95110000     -34.03320000     -71.45890000
C      -44.39360000     -32.56060000     -73.05870000
C      -43.70590000     -32.11100000     -74.12640000
C      -45.33650000     -31.56020000     -72.48930000
H      -42.86270000     -32.56220000     -74.78580000
C      -45.16610000     -30.32610000     -73.17860000
C      -46.17600000     -31.50140000     -71.32920000
C      -46.62790000     -30.23170000     -71.12370000
S      -44.11470000     -30.38130000     -74.55070000
S      -46.18230000     -29.08220000     -72.40450000
H      -47.35110000     -29.89530000     -70.31880000
