40
Properties=species:S:1:pos:R:3 #=T CELL(abcABC):=T 1.889726e+02=T 90.00000=T Traj:=T positionsangstrom=T Step:=T 0=T Bead:=T pbc="F F F"
C      -44.19800000     -34.78030000     -67.99290000
C      -45.55710000     -34.99470000     -68.39740000
C      -45.79820000     -35.84980000     -69.46980000
C      -44.74410000     -36.46960000     -70.14140000
C      -43.41440000     -36.27790000     -69.82190000
C      -43.21920000     -35.43530000     -68.68450000
H      -43.89940000     -34.11640000     -67.20060000
H      -46.84410000     -35.92020000     -69.73860000
H      -42.55920000     -36.71370000     -70.23470000
H      -42.15610000     -35.24000000     -68.36340000
C      -45.09530000     -37.35680000     -71.36060000
H      -46.17860000     -37.48930000     -71.50720000
H      -44.74410000     -38.38410000     -71.22640000
C      -46.64870000     -34.34980000     -67.62050000
H      -47.05270000     -34.93940000     -66.75060000
H      -46.31290000     -33.49600000     -67.01840000
S      -44.21330000     -36.76950000     -72.88950000
S      -48.16880000     -33.78410000     -68.60730000
C      -44.87660000     -35.08220000     -73.00860000
H      -45.28250000     -34.86730000     -74.01650000
H      -45.85870000     -35.08480000     -72.43910000
C      -47.43400000     -32.31800000     -69.50350000
H      -46.97740000     -31.61650000     -68.80780000
H      -48.30380000     -31.82840000     -69.93530000
C      -46.31560000     -32.70620000     -70.54000000
H      -45.37320000     -32.81590000     -69.94830000
H      -46.48040000     -33.66110000     -71.09320000
C      -43.82470000     -33.98620000     -72.62210000
H      -42.95450000     -34.44900000     -73.04400000
H      -43.71770000     -33.98190000     -71.48580000
C      -44.13150000     -32.60210000     -73.09090000
C      -43.46920000     -32.06320000     -74.19400000
C      -45.10970000     -31.65120000     -72.48560000
H      -42.81700000     -32.66340000     -74.82930000
C      -45.04330000     -30.48520000     -73.24630000
C      -46.09490000     -31.54620000     -71.42570000
C      -46.78840000     -30.30350000     -71.41270000
S      -44.00570000     -30.40190000     -74.59000000
S      -46.26900000     -29.29400000     -72.71680000
H      -47.45420000     -29.81980000     -70.62650000
