40
Properties=species:S:1:pos:R:3 #=T CELL(abcABC):=T 1.889726e+02=T 90.00000=T Traj:=T positionsangstrom=T Step:=T 0=T Bead:=T pbc="F F F"
C      -43.73890000     -35.66380000     -68.55480000
C      -45.11870000     -35.58900000     -68.61150000
C      -45.75980000     -35.99310000     -69.82160000
C      -44.98910000     -36.62960000     -70.83550000
C      -43.61340000     -36.73010000     -70.71330000
C      -42.98230000     -36.27090000     -69.53170000
H      -43.29720000     -35.33440000     -67.59240000
H      -46.86470000     -35.88860000     -70.00580000
H      -42.92320000     -36.99460000     -71.58000000
H      -41.87610000     -36.38120000     -69.40000000
C      -45.70100000     -37.15530000     -72.03590000
H      -46.79840000     -36.86900000     -72.04980000
H      -45.70910000     -38.26370000     -72.02410000
C      -45.90190000     -34.85330000     -67.48570000
H      -46.17270000     -35.49800000     -66.64530000
H      -45.23230000     -34.04340000     -67.08880000
S      -45.09990000     -36.54910000     -73.68500000
S      -47.46650000     -33.97130000     -68.04930000
C      -45.50790000     -34.76190000     -73.69950000
H      -45.14080000     -34.37470000     -74.73210000
H      -46.59430000     -34.62810000     -73.47840000
C      -46.80640000     -32.45900000     -68.81040000
H      -46.25440000     -32.01130000     -68.03390000
H      -47.68570000     -31.86030000     -68.82100000
C      -46.07710000     -32.63840000     -70.17100000
H      -45.04550000     -33.04550000     -69.86240000
H      -46.57350000     -33.41890000     -70.68100000
C      -44.67810000     -33.90570000     -72.78820000
H      -43.64900000     -34.27080000     -72.72410000
H      -45.00570000     -33.98290000     -71.77100000
C      -44.81660000     -32.42230000     -73.16230000
C      -44.22610000     -31.94760000     -74.30790000
C      -45.20290000     -31.35540000     -72.30660000
H      -43.89720000     -32.46980000     -75.20160000
C      -45.00460000     -30.08900000     -72.82000000
C      -45.85300000     -31.36070000     -71.01330000
C      -46.05610000     -30.01770000     -70.55140000
S      -44.35750000     -30.22930000     -74.42830000
S      -45.62230000     -28.84710000     -71.71890000
H      -46.53640000     -29.63640000     -69.66450000
