40
Properties=species:S:1:pos:R:3 #=T CELL(abcABC):=T 1.889726e+02=T 90.00000=T Traj:=T positionsangstrom=T Step:=T 0=T Bead:=T pbc="F F F"
C      -43.68980000     -35.67280000     -68.65780000
C      -45.02340000     -35.45590000     -68.78230000
C      -45.66780000     -35.86270000     -69.94640000
C      -44.93940000     -36.59900000     -70.93740000
C      -43.55590000     -36.87290000     -70.77800000
C      -42.96360000     -36.45810000     -69.57020000
H      -43.12550000     -35.25190000     -67.80440000
H      -46.76190000     -35.70640000     -70.04040000
H      -43.05150000     -37.59140000     -71.44760000
H      -41.94970000     -36.79360000     -69.31640000
C      -45.73050000     -37.18790000     -72.11080000
H      -46.73580000     -37.06170000     -72.09570000
H      -45.41630000     -38.26100000     -72.18930000
C      -45.90930000     -34.87850000     -67.67880000
H      -46.17960000     -35.73570000     -67.06520000
H      -45.30240000     -34.24180000     -67.07610000
S      -45.13050000     -36.50200000     -73.77860000
S      -47.43110000     -33.95690000     -68.15190000
C      -45.76110000     -34.74790000     -73.55400000
H      -46.04130000     -34.41490000     -74.52560000
H      -46.72870000     -34.78100000     -73.12940000
C      -46.71760000     -32.23760000     -68.56560000
H      -45.96960000     -31.94620000     -67.76480000
H      -47.61280000     -31.58970000     -68.71000000
C      -45.97840000     -32.50100000     -69.95150000
H      -45.05260000     -33.04090000     -69.78880000
H      -46.67880000     -33.16690000     -70.59200000
C      -44.73720000     -33.92280000     -72.82870000
H      -43.74200000     -34.28670000     -73.07570000
H      -44.90460000     -34.08000000     -71.75080000
C      -44.77330000     -32.49640000     -73.04160000
C      -44.36390000     -32.00550000     -74.26780000
C      -45.29650000     -31.48350000     -72.18990000
H      -44.01420000     -32.60050000     -75.07800000
C      -45.18100000     -30.19460000     -72.76520000
C      -45.71320000     -31.33530000     -70.80020000
C      -45.90960000     -29.99770000     -70.42490000
S      -44.51310000     -30.25290000     -74.34780000
S      -45.51500000     -28.81910000     -71.75860000
H      -46.06710000     -29.71160000     -69.36360000
