40
Properties=species:S:1:pos:R:3 #=T CELL(abcABC):=T 1.889726e+02=T 90.00000=T Traj:=T positionsangstrom=T Step:=T 0=T Bead:=T pbc="F F F"
C      -41.79670000     -32.55900000     -70.72790000
C      -42.49010000     -32.72180000     -69.57480000
C      -42.96710000     -33.97800000     -69.15070000
C      -42.66850000     -35.12100000     -69.95970000
C      -41.94240000     -34.91240000     -71.20380000
C      -41.49440000     -33.62840000     -71.53710000
H      -41.62230000     -31.51980000     -70.99040000
H      -43.47990000     -34.15760000     -68.28910000
H      -41.59970000     -35.67140000     -71.89490000
H      -41.25180000     -33.42180000     -72.58970000
C      -43.19870000     -36.46770000     -69.56560000
H      -43.88170000     -36.30140000     -68.64590000
H      -42.44310000     -37.21010000     -69.33540000
C      -42.69880000     -31.59820000     -68.49470000
H      -43.06000000     -31.90300000     -67.55710000
H      -41.78170000     -31.03650000     -68.29870000
S      -44.37430000     -37.37050000     -70.73950000
S      -43.69040000     -30.21100000     -69.31740000
C      -45.78480000     -36.15210000     -70.65010000
H      -46.66730000     -36.69560000     -71.00800000
H      -45.89920000     -35.91570000     -69.58020000
C      -45.23810000     -31.11250000     -69.98780000
H      -46.18640000     -30.71690000     -69.61970000
H      -45.19520000     -32.24020000     -69.65810000
C      -45.14100000     -31.22810000     -71.54160000
H      -44.75190000     -30.28840000     -71.93110000
H      -44.37110000     -31.89020000     -71.83600000
C      -45.55590000     -34.83870000     -71.42470000
H      -44.94970000     -34.82550000     -72.35770000
H      -44.99460000     -34.16380000     -70.78820000
C      -46.90350000     -34.25310000     -71.89490000
C      -47.95550000     -35.11150000     -72.30760000
C      -47.13090000     -32.93260000     -72.38880000
H      -48.03170000     -36.12760000     -72.17700000
C      -48.23640000     -32.85160000     -73.27630000
C      -46.51030000     -31.60530000     -72.29980000
C      -47.17990000     -30.63420000     -73.05070000
S      -49.16790000     -34.29490000     -73.21770000
S      -48.56850000     -31.24510000     -73.97430000
H      -46.63230000     -29.70580000     -73.28830000
