40
Properties=species:S:1:pos:R:3 #=T CELL(abcABC):=T 1.889726e+02=T 90.00000=T Traj:=T positionsangstrom=T Step:=T 0=T Bead:=T pbc="F F F"
C      -43.91350000     -36.54220000     -68.71280000
C      -45.24370000     -36.07210000     -68.73190000
C      -45.96360000     -36.27100000     -69.87840000
C      -45.39640000     -36.90400000     -71.02540000
C      -44.00750000     -37.25850000     -71.02780000
C      -43.25790000     -37.11460000     -69.79650000
H      -43.30500000     -36.34170000     -67.86630000
H      -47.05830000     -36.06440000     -70.05540000
H      -43.50910000     -37.49880000     -71.97810000
H      -42.21050000     -37.27690000     -69.58840000
C      -46.13350000     -37.11950000     -72.29800000
H      -47.25280000     -37.19650000     -72.18200000
H      -45.88700000     -38.12700000     -72.73620000
C      -45.91720000     -35.39770000     -67.49920000
H      -46.65450000     -36.10390000     -67.10190000
H      -45.11230000     -35.19050000     -66.76660000
S      -45.76130000     -36.14080000     -73.82670000
S      -46.97460000     -34.01680000     -67.94980000
C      -45.88070000     -34.41280000     -73.21930000
H      -46.71430000     -33.90860000     -73.74310000
H      -46.08620000     -34.41210000     -72.15680000
C      -46.06080000     -32.46730000     -68.55860000
H      -45.29530000     -32.28810000     -67.88220000
H      -46.67840000     -31.63870000     -68.49510000
C      -45.55340000     -32.70710000     -70.02160000
H      -44.66010000     -33.30210000     -70.08550000
H      -46.26800000     -33.33920000     -70.57300000
C      -44.54690000     -33.66810000     -73.42160000
H      -44.15710000     -33.89330000     -74.43200000
H      -43.77840000     -33.97560000     -72.74590000
C      -44.72940000     -32.12670000     -73.35430000
C      -44.41280000     -31.44270000     -74.47190000
C      -45.06610000     -31.25120000     -72.28030000
H      -44.32590000     -31.80120000     -75.52370000
C      -45.10830000     -29.87890000     -72.69410000
C      -45.29820000     -31.41920000     -70.88290000
C      -45.51730000     -30.20340000     -70.25650000
S      -44.50280000     -29.63330000     -74.36650000
S      -45.33590000     -28.79440000     -71.34210000
H      -45.71780000     -30.02450000     -69.20660000
