40
Properties=species:S:1:pos:R:3 #=T CELL(abcABC):=T 1.889726e+02=T 90.00000=T Traj:=T positionsangstrom=T Step:=T 0=T Bead:=T pbc="F F F"
C      -40.71410000     -33.92590000     -69.79240000
C      -42.05940000     -33.56960000     -69.43470000
C      -43.08730000     -34.49520000     -69.37780000
C      -42.89580000     -35.86930000     -69.65620000
C      -41.53980000     -36.22480000     -69.91810000
C      -40.47490000     -35.33050000     -69.93160000
H      -39.93040000     -33.17540000     -69.91690000
H      -44.02560000     -34.19390000     -69.02150000
H      -41.28020000     -37.25340000     -70.23000000
H      -39.51520000     -35.66150000     -70.16300000
C      -43.99260000     -36.86570000     -69.87100000
H      -44.85220000     -36.66810000     -69.20260000
H      -43.61980000     -37.81590000     -69.57670000
C      -42.35820000     -32.07700000     -69.30310000
H      -43.29720000     -31.88920000     -68.77780000
H      -41.56070000     -31.50000000     -68.83330000
S      -44.72510000     -37.01270000     -71.51140000
S      -42.63020000     -31.29300000     -70.94370000
C      -46.17230000     -35.89090000     -71.46580000
H      -46.94650000     -36.30620000     -72.11070000
H      -46.54510000     -35.88920000     -70.44880000
C      -44.43320000     -31.36510000     -71.03630000
H      -44.80550000     -30.62520000     -70.33210000
H      -44.75480000     -32.36140000     -70.64980000
C      -44.92500000     -31.08590000     -72.46860000
H      -44.60550000     -30.15870000     -72.88510000
H      -44.31650000     -31.70210000     -73.15130000
C      -45.94720000     -34.46020000     -72.03820000
H      -45.60800000     -34.67050000     -73.07500000
H      -45.11400000     -33.83930000     -71.65960000
C      -47.28900000     -33.77560000     -72.23490000
C      -48.49430000     -34.35750000     -71.92180000
C      -47.32910000     -32.37760000     -72.60650000
H      -48.70590000     -35.42780000     -71.61750000
C      -48.70300000     -31.98170000     -72.55730000
C      -46.44340000     -31.20130000     -72.65830000
C      -47.15110000     -30.07020000     -72.64190000
S      -49.85400000     -33.25840000     -72.14010000
S      -48.94020000     -30.21310000     -72.55910000
H      -46.75820000     -29.08150000     -72.65380000
