40
Properties=species:S:1:pos:R:3 #=T CELL(abcABC):=T 1.889726e+02=T 90.00000=T Traj:=T positionsangstrom=T Step:=T 0=T Bead:=T pbc="F F F"
C      -40.93010000     -33.78440000     -69.74470000
C      -42.20350000     -33.41840000     -69.35120000
C      -43.24930000     -34.43520000     -69.37930000
C      -42.91310000     -35.76530000     -69.67700000
C      -41.53090000     -36.08730000     -69.95550000
C      -40.57200000     -35.08570000     -70.03050000
H      -40.26740000     -32.94220000     -69.82540000
H      -44.24230000     -34.15640000     -68.95810000
H      -41.23390000     -37.13010000     -69.99910000
H      -39.48640000     -35.18320000     -70.34540000
C      -43.93850000     -36.84380000     -69.74260000
H      -44.79980000     -36.58580000     -69.14710000
H      -43.58450000     -37.83800000     -69.35650000
C      -42.42470000     -31.96940000     -69.02440000
H      -43.23170000     -31.82570000     -68.37870000
H      -41.56570000     -31.65440000     -68.50300000
S      -44.60090000     -37.07310000     -71.55250000
S      -42.74850000     -30.89320000     -70.47640000
C      -46.18210000     -36.00140000     -71.59890000
H      -46.83220000     -36.54830000     -72.28410000
H      -46.80470000     -36.01750000     -70.69980000
C      -44.51770000     -31.34070000     -70.78190000
H      -45.22160000     -30.72880000     -70.18310000
H      -44.61290000     -32.35940000     -70.42610000
C      -44.86710000     -31.32850000     -72.29880000
H      -44.59730000     -30.29620000     -72.70500000
H      -44.38160000     -32.17930000     -72.81760000
C      -45.94320000     -34.60170000     -72.05130000
H      -45.35610000     -34.53340000     -72.98910000
H      -45.31570000     -34.18340000     -71.23790000
C      -47.23540000     -33.81760000     -72.22480000
C      -48.46410000     -34.46300000     -72.23060000
C      -47.37680000     -32.44060000     -72.38640000
H      -48.58750000     -35.58910000     -72.06420000
C      -48.70230000     -32.08660000     -72.56720000
C      -46.39740000     -31.38410000     -72.62860000
C      -47.03360000     -30.24970000     -72.90940000
S      -49.82050000     -33.33440000     -72.26360000
S      -48.78720000     -30.38250000     -73.02270000
H      -46.61530000     -29.32010000     -73.21660000
