40
Properties=species:S:1:pos:R:3 #=T CELL(abcABC):=T 1.889726e+02=T 90.00000=T Traj:=T positionsangstrom=T Step:=T 0=T Bead:=T pbc="F F F"
C      -41.28780000     -33.19230000     -70.20410000
C      -42.36400000     -33.12500000     -69.33350000
C      -43.17040000     -34.24910000     -69.18630000
C      -42.84720000     -35.47590000     -69.76100000
C      -41.67080000     -35.54480000     -70.49120000
C      -40.89360000     -34.43260000     -70.77590000
H      -40.71930000     -32.32570000     -70.34540000
H      -43.98360000     -34.16660000     -68.54650000
H      -41.36430000     -36.52660000     -70.87870000
H      -39.90550000     -34.50680000     -71.30730000
C      -43.72800000     -36.66830000     -69.68180000
H      -44.61370000     -36.50650000     -69.08130000
H      -43.15840000     -37.55190000     -69.34450000
C      -42.81050000     -31.81460000     -68.70850000
H      -43.61740000     -32.00570000     -67.92870000
H      -41.95230000     -31.28960000     -68.17070000
S      -44.39410000     -37.15980000     -71.32960000
S      -43.34260000     -30.48280000     -69.86460000
C      -45.94280000     -36.24900000     -71.73630000
H      -45.91790000     -36.22800000     -72.88480000
H      -46.86880000     -36.72510000     -71.37190000
C      -44.79390000     -31.19680000     -70.59690000
H      -45.63960000     -30.53190000     -70.48690000
H      -44.99140000     -32.09370000     -69.96120000
C      -44.82260000     -31.58700000     -72.11460000
H      -44.26880000     -30.80560000     -72.72400000
H      -44.30130000     -32.54530000     -72.23190000
C      -45.97890000     -34.75670000     -71.20120000
H      -45.16830000     -34.10370000     -71.54450000
H      -45.84020000     -34.73840000     -70.12370000
C      -47.18620000     -33.92840000     -71.57040000
C      -48.44630000     -34.42960000     -71.58010000
C      -47.19810000     -32.60320000     -72.20960000
H      -48.64660000     -35.37640000     -71.08030000
C      -48.46280000     -32.34090000     -72.76720000
C      -46.24410000     -31.60530000     -72.69400000
C      -46.82200000     -30.66190000     -73.44860000
S      -49.64950000     -33.60840000     -72.53060000
S      -48.48320000     -30.93560000     -73.82320000
H      -46.32520000     -29.82970000     -73.93770000
