40
Properties=species:S:1:pos:R:3 #=T CELL(abcABC):=T 1.889726e+02=T 90.00000=T Traj:=T positionsangstrom=T Step:=T 0=T Bead:=T pbc="F F F"
C      -40.89830000     -33.49220000     -69.56390000
C      -42.23670000     -33.26790000     -69.16450000
C      -43.17450000     -34.26570000     -69.32340000
C      -42.82250000     -35.51450000     -69.85370000
C      -41.52240000     -35.70840000     -70.26380000
C      -40.54460000     -34.73090000     -70.11220000
H      -40.12040000     -32.70290000     -69.51960000
H      -44.16670000     -34.22730000     -69.00410000
H      -41.15060000     -36.60040000     -70.72570000
H      -39.52220000     -34.85810000     -70.36990000
C      -43.75920000     -36.73180000     -69.87110000
H      -44.56090000     -36.65420000     -69.06380000
H      -43.17850000     -37.69200000     -69.90340000
C      -42.64560000     -31.85060000     -68.77930000
H      -43.44450000     -31.90670000     -68.08820000
H      -41.87110000     -31.38560000     -68.31100000
S      -44.65830000     -37.09910000     -71.50560000
S      -42.90920000     -30.86190000     -70.26600000
C      -46.21600000     -36.20040000     -71.68190000
H      -46.61100000     -36.34510000     -72.68210000
H      -46.94980000     -36.68360000     -71.00280000
C      -44.72380000     -31.09460000     -70.65570000
H      -45.15070000     -30.10490000     -70.48440000
H      -45.21030000     -31.83030000     -69.96460000
C      -44.86680000     -31.60050000     -72.12870000
H      -44.17760000     -30.97450000     -72.74440000
H      -44.57680000     -32.68370000     -72.15980000
C      -46.09570000     -34.74430000     -71.45970000
H      -45.08220000     -34.45580000     -71.85390000
H      -46.07590000     -34.64120000     -70.36170000
C      -47.28160000     -33.96640000     -71.91870000
C      -48.52620000     -34.60260000     -72.11820000
C      -47.36400000     -32.57350000     -72.33370000
H      -48.71990000     -35.58360000     -71.78950000
C      -48.64120000     -32.13780000     -72.67910000
C      -46.30470000     -31.56680000     -72.63360000
C      -46.79970000     -30.47730000     -73.26610000
S      -49.84960000     -33.41440000     -72.48460000
S      -48.56120000     -30.52930000     -73.39800000
H      -46.18860000     -29.57050000     -73.56870000
