40
Properties=species:S:1:pos:R:3 #=T CELL(abcABC):=T 1.889726e+02=T 90.00000=T Traj:=T positionsangstrom=T Step:=T 0=T Bead:=T pbc="F F F"
C      -43.61590000     -35.28530000     -68.29710000
C      -44.38100000     -34.13300000     -68.08600000
C      -45.76650000     -34.22430000     -68.29160000
C      -46.40850000     -35.45440000     -68.50700000
C      -45.61400000     -36.59610000     -68.67590000
C      -44.24370000     -36.52600000     -68.50700000
H      -42.53460000     -35.22950000     -68.21550000
H      -46.36020000     -33.28830000     -68.41500000
H      -46.09510000     -37.49180000     -68.86900000
H      -43.68210000     -37.42530000     -68.68050000
C      -47.95260000     -35.55380000     -68.73860000
H      -48.47750000     -35.14460000     -67.95440000
H      -48.19180000     -36.63620000     -68.82300000
C      -43.72760000     -32.84710000     -67.73780000
H      -44.47060000     -32.13080000     -67.32080000
H      -42.83450000     -32.96300000     -67.08540000
S      -48.56720000     -34.66790000     -70.22520000
S      -43.30260000     -31.93990000     -69.29670000
C      -47.12350000     -34.81090000     -71.40970000
H      -46.24080000     -34.44460000     -70.89690000
H      -46.92490000     -35.73710000     -71.81990000
C      -44.84800000     -31.09970000     -69.82050000
H      -44.51790000     -30.14630000     -70.26090000
H      -45.44350000     -30.80410000     -68.92840000
C      -45.53770000     -31.78030000     -70.96890000
H      -45.85010000     -32.72390000     -70.66370000
H      -46.54750000     -31.30320000     -71.14860000
C      -47.32220000     -33.79060000     -72.57660000
H      -47.74100000     -32.84420000     -72.25490000
H      -48.13210000     -34.22880000     -73.16560000
C      -46.13350000     -33.69320000     -73.55480000
C      -46.23080000     -34.10270000     -74.89720000
C      -45.11650000     -32.71770000     -73.37040000
H      -46.75110000     -34.95580000     -75.19270000
C      -44.48560000     -32.36240000     -74.52550000
C      -44.74770000     -31.82280000     -72.29010000
C      -43.88640000     -30.83030000     -72.69200000
S      -45.06770000     -33.19760000     -75.90290000
S      -43.40710000     -30.98170000     -74.35960000
H      -43.63670000     -29.96320000     -72.04970000
