40
Properties=species:S:1:pos:R:3 #=T CELL(abcABC):=T 1.889726e+02=T 90.00000=T Traj:=T positionsangstrom=T Step:=T 0=T Bead:=T pbc="F F F"
C      -48.70080000     -30.92150000     -71.39770000
C      -47.87590000     -31.36070000     -70.34080000
C      -46.57840000     -30.87530000     -70.24900000
C      -46.10170000     -30.02470000     -71.26900000
C      -46.85630000     -29.64170000     -72.36150000
C      -48.16830000     -30.12190000     -72.43670000
H      -49.77550000     -31.15680000     -71.40240000
H      -45.87620000     -31.15310000     -69.44040000
H      -46.37240000     -29.14720000     -73.25560000
H      -48.85190000     -29.86790000     -73.35370000
C      -44.74810000     -29.35370000     -71.13070000
H      -44.33990000     -29.52970000     -70.11470000
H      -44.73280000     -28.29050000     -71.40210000
C      -48.39910000     -32.45050000     -69.40470000
H      -49.13340000     -31.92300000     -68.70710000
H      -48.86930000     -33.37240000     -69.87700000
S      -43.54300000     -30.07820000     -72.33020000
S      -47.16220000     -33.06390000     -68.19090000
C      -43.47560000     -31.93920000     -72.12370000
H      -42.69950000     -32.20040000     -72.82900000
H      -43.01110000     -32.09710000     -71.09020000
C      -46.39610000     -34.55690000     -68.94150000
H      -47.00550000     -34.80390000     -69.84780000
H      -46.41910000     -35.46220000     -68.33600000
C      -44.95380000     -34.37030000     -69.37100000
H      -44.85090000     -33.43690000     -70.00140000
H      -44.33000000     -34.28030000     -68.50510000
C      -44.74790000     -32.78100000     -72.45010000
H      -45.04190000     -32.50760000     -73.45400000
H      -45.61220000     -32.64660000     -71.77640000
C      -44.47150000     -34.26110000     -72.67030000
C      -44.14710000     -34.75440000     -73.96030000
C      -44.38040000     -35.37490000     -71.73460000
H      -44.31040000     -34.30900000     -74.95640000
C      -43.81410000     -36.50250000     -72.26450000
C      -44.45860000     -35.55200000     -70.31220000
C      -44.23710000     -36.80980000     -69.86760000
S      -43.67190000     -36.43820000     -74.05310000
S      -43.92430000     -37.95110000     -71.22850000
H      -44.22070000     -37.12450000     -68.78040000
