40
Properties=species:S:1:pos:R:3 #=T CELL(abcABC):=T 1.889726e+02=T 90.00000=T Traj:=T positionsangstrom=T Step:=T 0=T Bead:=T pbc="F F F"
C      -40.62910000     -34.19870000     -69.80490000
C      -41.89060000     -33.59140000     -69.73010000
C      -43.04770000     -34.41720000     -69.64440000
C      -42.91540000     -35.80260000     -69.76100000
C      -41.65930000     -36.41330000     -69.78220000
C      -40.46130000     -35.58020000     -69.77730000
H      -39.70670000     -33.63420000     -69.68170000
H      -44.01070000     -33.95260000     -69.59750000
H      -41.63210000     -37.47210000     -69.78310000
H      -39.46130000     -36.08720000     -69.73740000
C      -44.21800000     -36.60810000     -69.85270000
H      -44.95510000     -35.97710000     -69.46570000
H      -44.23630000     -37.55810000     -69.23570000
C      -42.04940000     -32.13860000     -69.64580000
H      -42.73080000     -31.81960000     -68.81710000
H      -41.06220000     -31.60920000     -69.46610000
S      -44.75540000     -37.11010000     -71.55960000
S      -42.51190000     -31.45420000     -71.32690000
C      -46.32200000     -36.05430000     -71.65550000
H      -46.94810000     -36.52430000     -72.48240000
H      -46.81490000     -36.19680000     -70.65900000
C      -44.32090000     -31.00720000     -71.21590000
H      -44.45120000     -29.94950000     -70.99590000
H      -44.68030000     -31.47720000     -70.29800000
C      -44.95120000     -31.43170000     -72.54040000
H      -44.60770000     -30.68490000     -73.30890000
H      -44.60790000     -32.45130000     -72.75790000
C      -46.15910000     -34.54250000     -71.88020000
H      -45.57950000     -34.51840000     -72.82720000
H      -45.62150000     -34.05740000     -71.12290000
C      -47.42860000     -33.80470000     -72.02280000
C      -48.72790000     -34.21600000     -71.98380000
C      -47.36700000     -32.33070000     -72.12380000
H      -49.01880000     -35.20840000     -71.83100000
C      -48.67920000     -31.80600000     -72.18230000
C      -46.45720000     -31.27680000     -72.52670000
C      -47.03380000     -30.03990000     -72.66040000
S      -49.99110000     -32.99490000     -71.98040000
S      -48.76460000     -30.08980000     -72.31750000
H      -46.47150000     -29.11280000     -72.76400000
