40
Properties=species:S:1:pos:R:3 #=T CELL(abcABC):=T 1.889726e+02=T 90.00000=T Traj:=T positionsangstrom=T Step:=T 0=T Bead:=T pbc="F F F"
C      -48.30930000     -31.26140000     -71.46660000
C      -47.73200000     -31.18860000     -70.21150000
C      -46.50110000     -30.57940000     -70.07220000
C      -45.88970000     -30.03460000     -71.17680000
C      -46.56800000     -29.93910000     -72.41360000
C      -47.72230000     -30.64370000     -72.56930000
H      -49.29340000     -31.77110000     -71.64510000
H      -46.05220000     -30.73500000     -69.11110000
H      -46.04000000     -29.46520000     -73.20980000
H      -48.16190000     -30.67190000     -73.52040000
C      -44.49150000     -29.50910000     -71.07510000
H      -43.97870000     -29.74080000     -70.16250000
H      -44.43060000     -28.43150000     -71.19210000
C      -48.45430000     -31.89420000     -69.05940000
H      -48.81300000     -31.23940000     -68.20030000
H      -49.29810000     -32.51900000     -69.39230000
S      -43.34280000     -30.33430000     -72.25660000
S      -47.27890000     -33.08930000     -68.31550000
C      -43.50640000     -32.11870000     -71.81540000
H      -42.61020000     -32.63530000     -72.09740000
H      -43.42780000     -32.16150000     -70.67730000
C      -46.63690000     -34.07570000     -69.71370000
H      -46.68870000     -33.37790000     -70.59050000
H      -47.23700000     -34.91940000     -70.02240000
C      -45.14950000     -34.37620000     -69.38730000
H      -44.49700000     -33.46650000     -69.52300000
H      -45.04400000     -34.80410000     -68.36620000
C      -44.73700000     -32.79850000     -72.35470000
H      -45.10700000     -32.20120000     -73.19490000
H      -45.52150000     -32.65850000     -71.58340000
C      -44.59150000     -34.29260000     -72.76860000
C      -44.44680000     -34.76340000     -74.06490000
C      -44.37950000     -35.33820000     -71.77550000
H      -44.80380000     -34.26320000     -74.97530000
C      -44.07990000     -36.53560000     -72.34310000
C      -44.47810000     -35.37330000     -70.30930000
C      -44.14210000     -36.63810000     -69.88830000
S      -44.14670000     -36.47390000     -74.08550000
S      -43.80460000     -37.78410000     -71.10450000
H      -44.08740000     -36.94150000     -68.82200000
