40
Properties=species:S:1:pos:R:3 #=T CELL(abcABC):=T 1.889726e+02=T 90.00000=T Traj:=T positionsangstrom=T Step:=T 0=T Bead:=T pbc="F F F"
C      -48.49280000     -31.14600000     -71.50030000
C      -47.83070000     -31.24310000     -70.28910000
C      -46.58650000     -30.55810000     -70.13870000
C      -45.92560000     -29.98740000     -71.20840000
C      -46.57570000     -30.01460000     -72.50730000
C      -47.88880000     -30.52530000     -72.60040000
H      -49.43420000     -31.66760000     -71.56410000
H      -46.09230000     -30.49600000     -69.20190000
H      -46.19800000     -29.44510000     -73.35710000
H      -48.34880000     -30.63000000     -73.49400000
C      -44.57670000     -29.49950000     -71.10000000
H      -44.38080000     -29.49920000     -70.00990000
H      -44.64390000     -28.44450000     -71.39010000
C      -48.42210000     -32.03070000     -69.10930000
H      -48.74130000     -31.20730000     -68.44530000
H      -49.24150000     -32.62420000     -69.37400000
S      -43.32210000     -30.30290000     -72.15550000
S      -47.27050000     -33.16590000     -68.18270000
C      -43.53190000     -32.15290000     -71.87820000
H      -42.68440000     -32.57080000     -72.38890000
H      -43.50750000     -32.31460000     -70.83200000
C      -46.50820000     -34.26050000     -69.54760000
H      -46.87120000     -33.82180000     -70.44420000
H      -46.89980000     -35.24430000     -69.47170000
C      -44.97650000     -34.42720000     -69.31980000
H      -44.54720000     -33.46770000     -69.47960000
H      -44.79330000     -34.61290000     -68.26710000
C      -44.80680000     -32.71050000     -72.53030000
H      -44.95410000     -32.28550000     -73.49850000
H      -45.67350000     -32.41910000     -71.97870000
C      -44.56020000     -34.19060000     -72.70720000
C      -44.54140000     -34.64310000     -73.99590000
C      -44.32920000     -35.30670000     -71.72280000
H      -44.45660000     -34.00540000     -74.85880000
C      -44.10090000     -36.51950000     -72.32570000
C      -44.43430000     -35.46770000     -70.24740000
C      -44.21220000     -36.79610000     -69.86410000
S      -44.05760000     -36.37030000     -74.11260000
S      -43.71420000     -37.80080000     -71.24270000
H      -44.49170000     -37.16000000     -68.89620000
