40
Properties=species:S:1:pos:R:3 #=T CELL(abcABC):=T 1.889726e+02=T 90.00000=T Traj:=T positionsangstrom=T Step:=T 0=T Bead:=T pbc="F F F"
C      -48.64140000     -31.13470000     -71.47980000
C      -47.84610000     -31.44040000     -70.32440000
C      -46.55260000     -30.86710000     -70.23380000
C      -46.12040000     -29.96770000     -71.20220000
C      -47.00750000     -29.43510000     -72.15890000
C      -48.22900000     -30.05200000     -72.32240000
H      -49.54790000     -31.72170000     -71.72610000
H      -45.87410000     -31.04120000     -69.38030000
H      -46.76640000     -28.60730000     -72.82880000
H      -48.99610000     -29.55150000     -73.03350000
C      -44.66340000     -29.52040000     -71.09580000
H      -44.38660000     -29.76200000     -70.08210000
H      -44.54370000     -28.41840000     -71.11920000
C      -48.38630000     -32.45040000     -69.29740000
H      -49.16170000     -31.98110000     -68.65090000
H      -48.87050000     -33.22480000     -69.81650000
S      -43.57920000     -30.21730000     -72.43400000
S      -47.13030000     -33.10830000     -68.11530000
C      -43.44760000     -32.01530000     -72.05470000
H      -42.53720000     -32.48300000     -72.36720000
H      -43.50610000     -32.03460000     -70.96150000
C      -46.46760000     -34.54080000     -69.05520000
H      -47.00870000     -34.72550000     -69.97410000
H      -46.68920000     -35.40240000     -68.44950000
C      -44.96160000     -34.28260000     -69.36360000
H      -44.75870000     -33.23570000     -69.69100000
H      -44.40580000     -34.34670000     -68.41690000
C      -44.69930000     -32.85160000     -72.51350000
H      -45.13670000     -32.40300000     -73.46610000
H      -45.47670000     -32.71960000     -71.72410000
C      -44.37950000     -34.21890000     -72.78880000
C      -43.98100000     -34.72840000     -74.05990000
C      -44.35820000     -35.32380000     -71.82370000
H      -43.71270000     -34.17210000     -74.97090000
C      -44.01500000     -36.57660000     -72.35980000
C      -44.52560000     -35.37710000     -70.36930000
C      -44.32940000     -36.66550000     -69.92900000
S      -43.72900000     -36.49820000     -74.07820000
S      -43.80680000     -37.80110000     -71.16960000
H      -44.65860000     -36.93320000     -68.90880000
