40
Properties=species:S:1:pos:R:3 #=T CELL(abcABC):=T 1.889726e+02=T 90.00000=T Traj:=T positionsangstrom=T Step:=T 0=T Bead:=T pbc="F F F"
C      -48.53690000     -31.24640000     -71.58040000
C      -47.80230000     -31.48280000     -70.40140000
C      -46.55910000     -30.89040000     -70.26610000
C      -46.14090000     -29.95920000     -71.20360000
C      -46.93660000     -29.60570000     -72.35150000
C      -48.12930000     -30.32040000     -72.52440000
H      -49.39410000     -31.82440000     -71.80010000
H      -46.05200000     -31.20620000     -69.32100000
H      -46.68370000     -28.67970000     -72.91880000
H      -48.72700000     -30.25970000     -73.43470000
C      -44.64170000     -29.55040000     -71.09940000
H      -44.20790000     -29.87580000     -70.14580000
H      -44.49360000     -28.46240000     -71.18000000
C      -48.43240000     -32.33830000     -69.34470000
H      -49.21240000     -31.83930000     -68.89990000
H      -48.87770000     -33.22470000     -69.72730000
S      -43.45980000     -30.25930000     -72.34600000
S      -47.17450000     -33.06750000     -68.15510000
C      -43.42810000     -32.01740000     -71.77960000
H      -42.48030000     -32.50450000     -72.03920000
H      -43.53750000     -32.10290000     -70.72160000
C      -46.46520000     -34.48850000     -69.16500000
H      -46.91450000     -34.28590000     -70.10720000
H      -46.70150000     -35.48470000     -68.77500000
C      -44.96440000     -34.35410000     -69.30330000
H      -44.70100000     -33.36960000     -69.61500000
H      -44.56390000     -34.52260000     -68.31170000
C      -44.63600000     -32.73500000     -72.36040000
H      -44.85840000     -32.19380000     -73.27650000
H      -45.47480000     -32.55490000     -71.67720000
C      -44.45360000     -34.14480000     -72.70680000
C      -44.09860000     -34.58720000     -73.96080000
C      -44.37160000     -35.30020000     -71.74730000
H      -43.95150000     -33.97620000     -74.83210000
C      -43.90150000     -36.50080000     -72.35690000
C      -44.53140000     -35.47740000     -70.31070000
C      -44.31440000     -36.73610000     -69.89520000
S      -43.91610000     -36.36890000     -74.11280000
S      -43.82930000     -37.80410000     -71.20940000
H      -44.12340000     -36.95610000     -68.84100000
