40
Properties=species:S:1:pos:R:3 #=T CELL(abcABC):=T 1.889726e+02=T 90.00000=T Traj:=T positionsangstrom=T Step:=T 0=T Bead:=T pbc="F F F"
C      -40.76300000     -34.67050000     -70.18830000
C      -41.97160000     -34.04700000     -70.05610000
C      -43.18790000     -34.79210000     -69.97560000
C      -43.03480000     -36.21430000     -70.03280000
C      -41.81940000     -36.79850000     -70.23050000
C      -40.60460000     -36.05540000     -70.25320000
H      -39.89530000     -34.12690000     -70.06180000
H      -44.09270000     -34.35480000     -69.58580000
H      -41.83670000     -37.92380000     -70.21020000
H      -39.59980000     -36.49720000     -70.25190000
C      -44.32220000     -36.99370000     -69.89030000
H      -45.03880000     -36.59590000     -69.17240000
H      -43.98170000     -38.01490000     -69.59130000
C      -42.02990000     -32.51790000     -69.94760000
H      -42.81040000     -32.27840000     -69.24210000
H      -41.05750000     -32.05730000     -69.64080000
S      -45.13900000     -37.06850000     -71.53260000
S      -42.32240000     -31.78580000     -71.53870000
C      -46.58040000     -35.88230000     -71.32850000
H      -47.38620000     -36.32050000     -71.92100000
H      -46.95370000     -35.93850000     -70.31640000
C      -44.15270000     -31.47960000     -71.41080000
H      -44.34210000     -30.69100000     -70.76430000
H      -44.55610000     -32.35400000     -70.83000000
C      -44.87420000     -31.25250000     -72.76310000
H      -44.41480000     -30.43270000     -73.38810000
H      -44.75450000     -32.15330000     -73.28330000
C      -46.19740000     -34.43090000     -71.84580000
H      -45.84470000     -34.46540000     -72.83310000
H      -45.37070000     -34.06260000     -71.22230000
C      -47.37190000     -33.47060000     -71.79150000
C      -48.63230000     -33.79650000     -71.30470000
C      -47.34840000     -32.02810000     -72.11310000
H      -48.95000000     -34.75390000     -70.83440000
C      -48.56980000     -31.43460000     -71.95490000
C      -46.35440000     -31.00630000     -72.48170000
C      -46.82870000     -29.71720000     -72.60560000
S      -49.84880000     -32.48680000     -71.32010000
S      -48.57180000     -29.69950000     -72.23990000
H      -46.31270000     -28.80660000     -72.78730000
