40
Properties=species:S:1:pos:R:3 #=T CELL(abcABC):=T 1.889726e+02=T 90.00000=T Traj:=T positionsangstrom=T Step:=T 0=T Bead:=T pbc="F F F"
C      -48.42620000     -31.01000000     -71.46710000
C      -47.77740000     -31.27650000     -70.24000000
C      -46.43710000     -30.79800000     -70.17000000
C      -45.82020000     -30.03080000     -71.13880000
C      -46.54580000     -29.85170000     -72.36530000
C      -47.83220000     -30.32020000     -72.53780000
H      -49.44670000     -31.43240000     -71.69480000
H      -45.84180000     -31.06390000     -69.26870000
H      -46.12520000     -29.21120000     -73.11930000
H      -48.38200000     -30.07840000     -73.40670000
C      -44.39400000     -29.62760000     -71.03430000
H      -43.96580000     -30.12470000     -70.17810000
H      -44.30880000     -28.50890000     -70.89010000
C      -48.43530000     -31.99530000     -69.12700000
H      -49.01380000     -31.28190000     -68.49930000
H      -49.13240000     -32.75600000     -69.57020000
S      -43.26840000     -30.19940000     -72.39550000
S      -47.38020000     -33.08360000     -68.01390000
C      -43.22720000     -32.10340000     -72.26180000
H      -42.33910000     -32.37560000     -72.79350000
H      -43.12520000     -32.34070000     -71.22110000
C      -46.75660000     -34.45160000     -69.05610000
H      -47.47870000     -34.62030000     -69.90350000
H      -46.74940000     -35.31350000     -68.43330000
C      -45.36280000     -34.09920000     -69.58110000
H      -45.45910000     -33.20480000     -70.09220000
H      -44.70890000     -33.98070000     -68.76530000
C      -44.50880000     -32.80010000     -72.81250000
H      -44.70300000     -32.57480000     -73.90530000
H      -45.42130000     -32.61170000     -72.19160000
C      -44.24210000     -34.27550000     -72.86840000
C      -43.87910000     -34.85390000     -74.02520000
C      -44.36020000     -35.26620000     -71.81300000
H      -43.80620000     -34.38330000     -75.00510000
C      -44.09550000     -36.53710000     -72.23790000
C      -44.82120000     -35.30650000     -70.40010000
C      -44.89590000     -36.60760000     -69.95900000
S      -43.59810000     -36.61840000     -73.92010000
S      -44.32260000     -37.81400000     -71.14720000
H      -45.18210000     -36.84460000     -68.91750000
