40
Properties=species:S:1:pos:R:3 #=T CELL(abcABC):=T 1.889726e+02=T 90.00000=T Traj:=T positionsangstrom=T Step:=T 0=T Bead:=T pbc="F F F"
C      -48.48630000     -31.13680000     -71.05920000
C      -47.68490000     -31.09830000     -69.93480000
C      -46.39480000     -30.65510000     -70.03820000
C      -45.92650000     -30.00260000     -71.20610000
C      -46.76340000     -29.97900000     -72.32030000
C      -48.08850000     -30.51140000     -72.25960000
H      -49.54970000     -31.43140000     -70.92630000
H      -45.77220000     -30.51140000     -69.14280000
H      -46.43820000     -29.46570000     -73.16060000
H      -48.66420000     -30.71840000     -73.15990000
C      -44.52130000     -29.50430000     -71.18030000
H      -44.05320000     -29.58260000     -70.17100000
H      -44.36230000     -28.40970000     -71.45340000
C      -48.18540000     -31.66820000     -68.67050000
H      -48.27960000     -30.90100000     -67.87910000
H      -49.17920000     -32.03860000     -68.74230000
S      -43.33270000     -30.30930000     -72.41390000
S      -46.96520000     -32.87050000     -67.84970000
C      -43.44970000     -32.13060000     -72.04320000
H      -42.44390000     -32.54290000     -71.85870000
H      -43.77840000     -32.17760000     -71.05860000
C      -46.79930000     -34.32960000     -69.02330000
H      -47.76030000     -34.50390000     -69.46220000
H      -46.53770000     -35.18230000     -68.45180000
C      -45.73230000     -34.17110000     -70.10610000
H      -46.00760000     -33.32170000     -70.81010000
H      -44.87290000     -33.75070000     -69.56810000
C      -44.30920000     -32.84460000     -73.03750000
H      -44.05180000     -32.39160000     -73.97230000
H      -45.35680000     -32.58830000     -72.86380000
C      -44.14200000     -34.34830000     -73.08090000
C      -43.25160000     -34.89290000     -73.98930000
C      -44.68340000     -35.41170000     -72.12930000
H      -42.78160000     -34.35920000     -74.78230000
C      -44.15030000     -36.63290000     -72.43570000
C      -45.33240000     -35.44130000     -70.83710000
C      -45.34180000     -36.66150000     -70.19610000
S      -43.10610000     -36.63420000     -73.83150000
S      -44.62130000     -37.88400000     -71.24880000
H      -45.62380000     -36.89300000     -69.23260000
