40
Properties=species:S:1:pos:R:3 #=T CELL(abcABC):=T 1.889726e+02=T 90.00000=T Traj:=T positionsangstrom=T Step:=T 0=T Bead:=T pbc="F F F"
C      -48.35750000     -31.12610000     -71.45160000
C      -47.69170000     -31.31740000     -70.25810000
C      -46.40080000     -30.84290000     -70.12670000
C      -45.77820000     -30.26740000     -71.23220000
C      -46.51810000     -29.94320000     -72.33260000
C      -47.79960000     -30.40650000     -72.47590000
H      -49.38620000     -31.48580000     -71.60410000
H      -45.71920000     -30.88110000     -69.25400000
H      -46.04500000     -29.57700000     -73.25770000
H      -48.41340000     -30.28590000     -73.38520000
C      -44.34900000     -29.72430000     -71.07970000
H      -43.89190000     -30.02810000     -70.10370000
H      -44.20520000     -28.62180000     -71.03270000
C      -48.45000000     -32.01560000     -69.20580000
H      -49.12410000     -31.32340000     -68.65350000
H      -49.16280000     -32.70470000     -69.59630000
S      -43.25660000     -30.26950000     -72.43080000
S      -47.41710000     -32.98810000     -68.03740000
C      -43.23180000     -32.03170000     -72.16830000
H      -42.30860000     -32.47200000     -72.57120000
H      -43.15490000     -32.32420000     -71.11240000
C      -46.77600000     -34.31820000     -69.10370000
H      -47.42630000     -34.48280000     -69.97740000
H      -46.76760000     -35.27410000     -68.55640000
C      -45.34020000     -34.08050000     -69.60700000
H      -45.21270000     -33.09740000     -70.13710000
H      -44.66660000     -34.01350000     -68.63460000
C      -44.54930000     -32.81190000     -72.64940000
H      -44.87350000     -32.38450000     -73.61870000
H      -45.30290000     -32.57420000     -71.99100000
C      -44.39550000     -34.27910000     -72.84640000
C      -43.96640000     -34.81610000     -74.01510000
C      -44.58600000     -35.30830000     -71.86550000
H      -43.60790000     -34.26500000     -74.82440000
C      -44.13460000     -36.55660000     -72.29750000
C      -44.87440000     -35.26190000     -70.44760000
C      -44.75750000     -36.51390000     -69.86710000
S      -43.70400000     -36.51550000     -74.01160000
S      -44.17290000     -37.79030000     -71.04210000
H      -44.86120000     -36.86030000     -68.88640000
