40
Properties=species:S:1:pos:R:3 #=T CELL(abcABC):=T 1.889726e+02=T 90.00000=T Traj:=T positionsangstrom=T Step:=T 0=T Bead:=T pbc="F F F"
C      -43.22320000     -35.69830000     -73.64650000
C      -42.53860000     -35.12770000     -72.52930000
C      -42.92020000     -35.59920000     -71.22910000
C      -43.90190000     -36.56740000     -71.01340000
C      -44.50510000     -37.06460000     -72.15040000
C      -44.29410000     -36.61260000     -73.43600000
H      -42.98010000     -35.41010000     -74.66250000
H      -42.39800000     -35.28900000     -70.32140000
H      -45.26210000     -37.78840000     -71.90980000
H      -44.86980000     -37.08620000     -74.26580000
C      -44.17110000     -37.08970000     -69.65210000
H      -43.41890000     -37.01070000     -68.88510000
H      -44.34720000     -38.17740000     -69.80650000
C      -41.47830000     -34.06180000     -72.76160000
H      -40.82410000     -34.04490000     -71.85970000
H      -40.81170000     -34.40600000     -73.53780000
S      -45.84980000     -36.50480000     -68.84200000
S      -42.13400000     -32.37680000     -73.25310000
C      -45.76120000     -34.70750000     -68.76570000
H      -46.59690000     -34.35270000     -68.12810000
H      -44.78790000     -34.21070000     -68.38810000
C      -43.60440000     -32.00180000     -72.18660000
H      -43.70340000     -30.95020000     -71.93040000
H      -43.52250000     -32.51260000     -71.21040000
C      -44.91120000     -32.46180000     -72.86220000
H      -44.85840000     -32.19970000     -73.94610000
H      -45.16310000     -33.48690000     -72.79710000
C      -45.96430000     -34.02120000     -70.13950000
H      -46.44380000     -34.61360000     -70.87660000
H      -45.10760000     -33.66530000     -70.66130000
C      -46.88130000     -32.77690000     -70.20370000
C      -47.82470000     -32.45640000     -69.22390000
C      -46.86650000     -31.81030000     -71.18290000
H      -47.96990000     -32.98410000     -68.31910000
C      -47.72360000     -30.71470000     -70.94400000
C      -46.05560000     -31.63170000     -72.35280000
C      -46.34450000     -30.42000000     -72.90660000
S      -48.70500000     -30.94410000     -69.51090000
S      -47.51710000     -29.42930000     -72.10530000
H      -45.90650000     -29.97200000     -73.77030000
