40
Properties=species:S:1:pos:R:3 #=T CELL(abcABC):=T 1.889726e+02=T 90.00000=T Traj:=T positionsangstrom=T Step:=T 0=T Bead:=T pbc="F F F"
C      -48.31820000     -31.28310000     -70.76010000
C      -47.35670000     -31.27030000     -69.75800000
C      -46.07460000     -30.69920000     -70.07270000
C      -45.81110000     -30.11120000     -71.29610000
C      -46.84930000     -30.09740000     -72.30320000
C      -48.06480000     -30.68460000     -71.93220000
H      -49.29290000     -31.76810000     -70.66060000
H      -45.35640000     -30.61900000     -69.24130000
H      -46.61000000     -29.82400000     -73.34160000
H      -48.92350000     -30.72270000     -72.64740000
C      -44.47580000     -29.53540000     -71.55550000
H      -43.94450000     -29.72420000     -70.62190000
H      -44.65420000     -28.45490000     -71.70870000
C      -47.66220000     -31.77860000     -68.32190000
H      -47.68560000     -31.01750000     -67.61740000
H      -48.72780000     -32.16940000     -68.21510000
S      -43.61540000     -30.18700000     -73.14040000
S      -46.49030000     -32.91870000     -67.48000000
C      -43.57880000     -31.99040000     -72.79110000
H      -42.77610000     -32.36780000     -73.41870000
H      -43.33230000     -32.11770000     -71.77030000
C      -46.53810000     -34.38350000     -68.67730000
H      -47.61250000     -34.49750000     -68.92800000
H      -46.25020000     -35.30880000     -68.14370000
C      -45.70450000     -34.09220000     -69.91060000
H      -46.10050000     -33.47740000     -70.67320000
H      -44.79730000     -33.48030000     -69.55990000
C      -44.91090000     -32.90500000     -73.14720000
H      -45.17240000     -32.67150000     -74.19990000
H      -45.68730000     -32.59950000     -72.45430000
C      -44.47070000     -34.32220000     -73.04910000
C      -43.77900000     -34.88070000     -74.09230000
C      -44.68840000     -35.31830000     -71.95320000
H      -43.64910000     -34.41930000     -75.06190000
C      -44.34750000     -36.59940000     -72.38080000
C      -45.20090000     -35.32090000     -70.61330000
C      -45.14630000     -36.54240000     -70.04370000
S      -43.64320000     -36.66430000     -73.96280000
S      -44.35850000     -37.73910000     -71.07430000
H      -45.48990000     -36.83660000     -69.04920000
