40
Properties=species:S:1:pos:R:3 #=T CELL(abcABC):=T 1.889726e+02=T 90.00000=T Traj:=T positionsangstrom=T Step:=T 0=T Bead:=T pbc="F F F"
C      -48.41010000     -31.37570000     -70.86700000
C      -47.51210000     -31.21850000     -69.75080000
C      -46.26790000     -30.75410000     -69.90970000
C      -45.87240000     -30.22980000     -71.17840000
C      -46.74380000     -30.32350000     -72.26980000
C      -48.06020000     -30.84150000     -72.11530000
H      -49.29610000     -31.95480000     -70.68990000
H      -45.55620000     -30.60810000     -69.09240000
H      -46.40530000     -29.81730000     -73.18110000
H      -48.76660000     -30.94120000     -72.97180000
C      -44.52520000     -29.59820000     -71.27810000
H      -44.02500000     -29.96200000     -70.40130000
H      -44.50190000     -28.52700000     -71.29580000
C      -48.02540000     -32.00310000     -68.53270000
H      -48.35910000     -31.28710000     -67.70960000
H      -48.87770000     -32.59410000     -68.79530000
S      -43.45050000     -29.98340000     -72.79590000
S      -46.71520000     -32.93370000     -67.63560000
C      -43.06420000     -31.79650000     -72.40460000
H      -42.27610000     -32.04150000     -73.14010000
H      -42.73930000     -31.89630000     -71.37300000
C      -46.29450000     -34.45640000     -68.59950000
H      -47.19580000     -35.12420000     -68.64230000
H      -45.47220000     -34.95320000     -68.09880000
C      -45.88760000     -34.18230000     -70.09590000
H      -46.77330000     -33.75260000     -70.63460000
H      -45.06190000     -33.39680000     -70.07000000
C      -44.31870000     -32.61350000     -72.69640000
H      -44.72240000     -32.29190000     -73.67950000
H      -45.17890000     -32.46940000     -72.05730000
C      -44.08080000     -34.21810000     -72.83680000
C      -43.25460000     -34.70290000     -73.85240000
C      -44.63370000     -35.30370000     -72.01680000
H      -42.72560000     -34.25020000     -74.60590000
C      -44.32210000     -36.59670000     -72.54500000
C      -45.57670000     -35.42580000     -70.85660000
C      -45.86470000     -36.73760000     -70.57820000
S      -43.12380000     -36.46000000     -73.83680000
S      -44.96950000     -37.89450000     -71.52730000
H      -46.43950000     -37.05490000     -69.74740000
