40
Properties=species:S:1:pos:R:3 #=T CELL(abcABC):=T 1.889726e+02=T 90.00000=T Traj:=T positionsangstrom=T Step:=T 0=T Bead:=T pbc="F F F"
C      -48.33910000     -31.23580000     -70.75590000
C      -47.49670000     -31.19250000     -69.68200000
C      -46.21090000     -30.68700000     -69.91860000
C      -45.86080000     -30.23590000     -71.23880000
C      -46.70890000     -30.38370000     -72.28460000
C      -47.95990000     -30.88090000     -72.03940000
H      -49.30690000     -31.53340000     -70.59040000
H      -45.48570000     -30.48230000     -69.13920000
H      -46.49560000     -30.11410000     -73.34090000
H      -48.65290000     -31.01150000     -72.85170000
C      -44.46680000     -29.67030000     -71.33150000
H      -43.82640000     -30.08510000     -70.53730000
H      -44.43680000     -28.52700000     -71.27550000
C      -47.89180000     -31.61570000     -68.31260000
H      -47.85960000     -30.72550000     -67.61690000
H      -48.85210000     -31.98930000     -68.22060000
S      -43.65520000     -30.14220000     -73.03000000
S      -46.68590000     -32.80260000     -67.56030000
C      -43.20430000     -31.92280000     -72.97220000
H      -42.63740000     -32.30830000     -73.82290000
H      -42.57330000     -32.12640000     -72.10180000
C      -46.51630000     -34.35770000     -68.53800000
H      -47.44270000     -34.89730000     -68.83200000
H      -45.96710000     -34.95090000     -67.81130000
C      -45.73970000     -34.06780000     -69.87220000
H      -46.32140000     -33.37400000     -70.60310000
H      -44.89570000     -33.37500000     -69.65820000
C      -44.41730000     -32.82680000     -72.89900000
H      -45.13910000     -32.61030000     -73.67820000
H      -44.97700000     -32.45780000     -71.99100000
C      -44.05760000     -34.27010000     -72.89970000
C      -43.36060000     -34.87110000     -73.94810000
C      -44.60950000     -35.29470000     -71.95490000
H      -42.83480000     -34.26550000     -74.75060000
C      -44.26820000     -36.59480000     -72.41400000
C      -45.25870000     -35.33280000     -70.60310000
C      -45.40660000     -36.68980000     -70.21810000
S      -43.45430000     -36.57790000     -73.99510000
S      -44.84560000     -37.87300000     -71.40110000
H      -45.72820000     -37.09140000     -69.26390000
