40
Properties=species:S:1:pos:R:3 #=T CELL(abcABC):=T 1.889726e+02=T 90.00000=T Traj:=T positionsangstrom=T Step:=T 0=T Bead:=T pbc="F F F"
C      -47.57790000     -33.43440000     -68.11400000
C      -46.92140000     -32.36410000     -68.76180000
C      -47.39890000     -31.99060000     -70.03850000
C      -48.45870000     -32.68590000     -70.64290000
C      -49.17170000     -33.69120000     -69.93960000
C      -48.67970000     -34.11790000     -68.71320000
H      -47.30920000     -33.69300000     -67.07860000
H      -46.87710000     -31.10810000     -70.54530000
H      -50.00780000     -34.21570000     -70.41720000
H      -49.17610000     -34.85190000     -68.03730000
C      -48.91110000     -32.29170000     -72.01370000
H      -48.91150000     -31.23690000     -72.16500000
H      -49.89820000     -32.74400000     -72.10850000
C      -45.77340000     -31.67280000     -67.98540000
H      -45.32490000     -30.87040000     -68.57380000
H      -46.22540000     -31.27380000     -67.09890000
S      -47.72190000     -32.83050000     -73.41180000
S      -44.50100000     -32.70520000     -67.22440000
C      -47.55730000     -34.70950000     -72.95620000
H      -48.40410000     -35.05430000     -72.36000000
H      -47.51500000     -35.17590000     -73.91650000
C      -43.43880000     -32.81780000     -68.70150000
H      -42.51740000     -33.18890000     -68.32700000
H      -43.29190000     -31.78080000     -69.00130000
C      -43.93660000     -33.63470000     -69.83770000
H      -43.97820000     -34.65080000     -69.47290000
H      -44.94960000     -33.40530000     -69.99550000
C      -46.23370000     -35.04360000     -72.19880000
H      -46.08850000     -36.16880000     -72.20270000
H      -46.46370000     -34.70270000     -71.18360000
C      -45.01040000     -34.51300000     -72.98510000
C      -45.01640000     -34.59670000     -74.32930000
C      -43.75720000     -33.99100000     -72.45290000
H      -45.86340000     -35.03050000     -74.96730000
C      -42.79170000     -33.93240000     -73.40520000
C      -43.13730000     -33.47810000     -71.19640000
C      -41.84960000     -33.13920000     -71.28050000
S      -43.39460000     -34.22490000     -75.03070000
S      -41.25140000     -33.27150000     -72.94360000
H      -41.15710000     -32.73820000     -70.58550000
