40
Properties=species:S:1:pos:R:3 #=T CELL(abcABC):=T 1.889726e+02=T 90.00000=T Traj:=T positionsangstrom=T Step:=T 0=T Bead:=T pbc="F F F"
C      -43.59920000     -35.80340000     -73.44360000
C      -42.90640000     -35.06830000     -72.39620000
C      -42.96570000     -35.38610000     -71.09060000
C      -43.74230000     -36.51330000     -70.69510000
C      -44.44370000     -37.18220000     -71.69750000
C      -44.44760000     -36.81060000     -73.03900000
H      -43.51690000     -35.37160000     -74.47840000
H      -42.47050000     -34.68660000     -70.40690000
H      -45.17710000     -37.96660000     -71.41800000
H      -44.94780000     -37.34940000     -73.80910000
C      -44.06950000     -36.85300000     -69.21640000
H      -43.42630000     -36.23450000     -68.59060000
H      -43.79670000     -37.92290000     -68.91450000
C      -41.90670000     -33.92990000     -72.77370000
H      -41.57170000     -33.39730000     -71.88600000
H      -40.96500000     -34.38100000     -73.12490000
S      -45.85790000     -36.61420000     -68.89320000
S      -42.39670000     -32.76460000     -74.02490000
C      -45.90210000     -34.76100000     -68.69540000
H      -46.76220000     -34.51320000     -68.08220000
H      -45.08880000     -34.46630000     -68.03120000
C      -43.65110000     -31.86700000     -72.99410000
H      -43.61500000     -30.74450000     -73.16580000
H      -43.44890000     -31.93790000     -71.90450000
C      -45.04310000     -32.53130000     -73.10950000
H      -45.27020000     -32.81530000     -74.17580000
H      -45.00870000     -33.47240000     -72.62480000
C      -45.87630000     -33.94630000     -70.08060000
H      -46.60670000     -34.64950000     -70.67940000
H      -44.93440000     -34.03850000     -70.59080000
C      -46.55420000     -32.61940000     -69.97050000
C      -47.31630000     -32.20820000     -68.91060000
C      -46.63650000     -31.65630000     -71.10230000
H      -47.59010000     -32.67890000     -67.92610000
C      -47.54690000     -30.63550000     -70.85760000
C      -46.08260000     -31.64580000     -72.43780000
C      -46.48220000     -30.55090000     -73.10470000
S      -48.23190000     -30.72300000     -69.24450000
S      -47.59830000     -29.51120000     -72.17890000
H      -46.21120000     -30.32940000     -74.13240000
