40
Properties=species:S:1:pos:R:3 #=T CELL(abcABC):=T 1.889726e+02=T 90.00000=T Traj:=T positionsangstrom=T Step:=T 0=T Bead:=T pbc="F F F"
C      -47.58480000     -33.52370000     -68.01480000
C      -46.91300000     -32.42720000     -68.63840000
C      -47.46420000     -31.99700000     -69.84240000
C      -48.46170000     -32.72460000     -70.45870000
C      -49.00940000     -33.91430000     -69.95620000
C      -48.51090000     -34.31860000     -68.69720000
H      -47.28750000     -33.76550000     -67.00180000
H      -46.97250000     -31.22170000     -70.50680000
H      -49.83000000     -34.43020000     -70.44690000
H      -48.74660000     -35.28550000     -68.30390000
C      -48.91190000     -32.19240000     -71.83810000
H      -48.88090000     -31.05960000     -71.90260000
H      -49.98270000     -32.40070000     -72.07090000
C      -45.89840000     -31.62490000     -67.93790000
H      -45.40340000     -30.82330000     -68.54950000
H      -46.32510000     -30.98140000     -67.15380000
S      -47.82570000     -32.71930000     -73.28050000
S      -44.45890000     -32.71160000     -67.35780000
C      -47.54450000     -34.58690000     -72.91650000
H      -48.45080000     -34.86890000     -72.36470000
H      -47.64690000     -34.98820000     -73.94820000
C      -43.36490000     -32.92610000     -68.81630000
H      -42.42530000     -33.34470000     -68.40570000
H      -43.09120000     -31.91580000     -69.23580000
C      -43.91440000     -33.81890000     -69.89390000
H      -43.71340000     -34.84060000     -69.56200000
H      -44.99460000     -33.62130000     -69.97740000
C      -46.18810000     -34.71260000     -72.17550000
H      -46.01780000     -35.62450000     -71.66150000
H      -46.13060000     -34.00380000     -71.40520000
C      -45.01890000     -34.46770000     -73.14830000
C      -44.88990000     -34.71460000     -74.49290000
C      -43.83460000     -33.93180000     -72.54570000
H      -45.68510000     -35.27170000     -75.03330000
C      -42.85590000     -33.71770000     -73.55300000
C      -43.26310000     -33.68190000     -71.25160000
C      -41.92520000     -33.45910000     -71.24440000
S      -43.34330000     -34.16830000     -75.11900000
S      -41.29920000     -33.20290000     -72.90560000
H      -41.33060000     -33.18690000     -70.39970000
