40
Properties=species:S:1:pos:R:3 #=T CELL(abcABC):=T 1.889726e+02=T 90.00000=T Traj:=T positionsangstrom=T Step:=T 0=T Bead:=T pbc="F F F"
C      -43.19260000     -36.97450000     -72.70130000
C      -42.70370000     -35.78250000     -72.15150000
C      -43.11960000     -35.52430000     -70.83620000
C      -43.89490000     -36.35870000     -70.07860000
C      -44.43330000     -37.47610000     -70.70100000
C      -44.08420000     -37.83400000     -72.01800000
H      -42.82350000     -37.26400000     -73.66990000
H      -42.72960000     -34.60530000     -70.28620000
H      -45.21160000     -38.13630000     -70.17300000
H      -44.57490000     -38.70550000     -72.51760000
C      -44.20610000     -36.11740000     -68.62220000
H      -43.71620000     -35.16900000     -68.27390000
H      -43.91850000     -36.91900000     -67.95630000
C      -41.77580000     -34.79320000     -72.86480000
H      -41.10660000     -34.13370000     -72.24180000
H      -41.16760000     -35.34870000     -73.58540000
S      -45.99960000     -35.78360000     -68.20900000
S      -42.64770000     -33.72940000     -74.05650000
C      -46.24010000     -34.04980000     -68.66220000
H      -47.19370000     -33.66970000     -68.24650000
H      -45.39530000     -33.48980000     -68.18630000
C      -43.59920000     -32.73230000     -72.76990000
H      -43.16590000     -31.72680000     -72.72000000
H      -43.38410000     -33.29270000     -71.87380000
C      -45.03750000     -32.74540000     -73.33970000
H      -45.04680000     -32.47790000     -74.41820000
H      -45.53870000     -33.70050000     -73.31570000
C      -46.29090000     -33.65740000     -70.15370000
H      -46.97240000     -34.28680000     -70.71720000
H      -45.33630000     -33.86600000     -70.64250000
C      -46.82180000     -32.25930000     -70.31810000
C      -47.68240000     -31.67810000     -69.37560000
C      -46.70420000     -31.44780000     -71.53000000
H      -47.99530000     -32.10520000     -68.43190000
C      -47.37830000     -30.25030000     -71.44340000
C      -45.97780000     -31.63560000     -72.79090000
C      -46.13260000     -30.51060000     -73.60840000
S      -48.24620000     -30.07600000     -69.95340000
S      -47.13210000     -29.25340000     -72.80500000
H      -45.78700000     -30.42840000     -74.63670000
