40
Properties=species:S:1:pos:R:3 #=T CELL(abcABC):=T 1.889726e+02=T 90.00000=T Traj:=T positionsangstrom=T Step:=T 0=T Bead:=T pbc="F F F"
C      -43.25300000     -36.97230000     -72.37040000
C      -42.65220000     -35.79530000     -71.83340000
C      -42.96140000     -35.45370000     -70.51330000
C      -43.87560000     -36.17360000     -69.74110000
C      -44.45140000     -37.28190000     -70.33160000
C      -44.14830000     -37.70660000     -71.59910000
H      -43.07470000     -37.21760000     -73.42630000
H      -42.50090000     -34.57790000     -70.16460000
H      -45.20520000     -37.75180000     -69.76010000
H      -44.66580000     -38.49240000     -72.14410000
C      -44.24480000     -35.81950000     -68.27800000
H      -43.66540000     -34.92710000     -67.92070000
H      -44.01270000     -36.70860000     -67.66510000
C      -41.63750000     -35.02550000     -72.67340000
H      -41.03410000     -34.28120000     -72.08890000
H      -40.97120000     -35.65430000     -73.22650000
S      -46.01460000     -35.39670000     -68.04350000
S      -42.68430000     -34.25230000     -74.00250000
C      -46.09860000     -33.66850000     -68.63820000
H      -46.74840000     -33.06650000     -67.88680000
H      -45.07470000     -33.29000000     -68.58560000
C      -43.81970000     -33.21330000     -72.90560000
H      -43.49440000     -32.12080000     -73.02230000
H      -43.68520000     -33.51240000     -71.79390000
C      -45.33450000     -33.18290000     -73.24950000
H      -45.46170000     -33.51020000     -74.32800000
H      -45.63840000     -34.04270000     -72.66330000
C      -46.69040000     -33.54210000     -70.04040000
H      -47.60470000     -34.18570000     -70.04170000
H      -46.11570000     -34.14120000     -70.81880000
C      -47.02920000     -32.15860000     -70.46080000
C      -47.82470000     -31.41760000     -69.65500000
C      -46.74220000     -31.52610000     -71.71160000
H      -48.19670000     -31.81880000     -68.72210000
C      -47.31260000     -30.22650000     -71.79740000
C      -46.01050000     -31.87340000     -72.90540000
C      -45.94250000     -30.85710000     -73.77360000
S      -48.12080000     -29.78880000     -70.32580000
S      -46.87710000     -29.35220000     -73.30110000
H      -45.39140000     -30.89410000     -74.71670000
