40
Properties=species:S:1:pos:R:3 #=T CELL(abcABC):=T 1.889726e+02=T 90.00000=T Traj:=T positionsangstrom=T Step:=T 0=T Bead:=T pbc="F F F"
C      -43.49730000     -37.22230000     -72.09040000
C      -42.99750000     -35.93150000     -71.71110000
C      -43.37420000     -35.41680000     -70.44200000
C      -44.18170000     -36.11690000     -69.54480000
C      -44.58850000     -37.38950000     -69.96580000
C      -44.26590000     -37.96220000     -71.20260000
H      -43.18830000     -37.60360000     -73.06590000
H      -42.89010000     -34.45770000     -70.07130000
H      -45.24690000     -38.02240000     -69.28840000
H      -44.51620000     -39.01220000     -71.42760000
C      -44.32920000     -35.58080000     -68.12430000
H      -43.51210000     -34.80450000     -68.00620000
H      -44.05360000     -36.38600000     -67.41650000
C      -41.99650000     -35.27130000     -72.63130000
H      -41.31890000     -34.60460000     -72.09830000
H      -41.24300000     -36.08250000     -72.95370000
S      -46.07840000     -35.10610000     -67.70820000
S      -42.72500000     -34.44970000     -74.05520000
C      -46.21000000     -33.47900000     -68.56370000
H      -47.02600000     -32.88700000     -68.11630000
H      -45.27350000     -32.82740000     -68.32400000
C      -43.63000000     -33.04540000     -73.26800000
H      -43.39540000     -32.04780000     -73.73790000
H      -43.39530000     -32.99330000     -72.15100000
C      -45.13650000     -33.26030000     -73.30520000
H      -45.32680000     -33.71840000     -74.23860000
H      -45.37860000     -33.98590000     -72.49820000
C      -46.43750000     -33.49950000     -70.05460000
H      -47.15410000     -34.27220000     -70.40780000
H      -45.50170000     -33.71930000     -70.55800000
C      -46.88390000     -32.12390000     -70.52500000
C      -47.59470000     -31.22160000     -69.75930000
C      -46.62340000     -31.55620000     -71.84670000
H      -48.01530000     -31.45670000     -68.81020000
C      -47.06240000     -30.21530000     -71.95960000
C      -45.94920000     -31.97980000     -73.06370000
C      -45.96270000     -30.99530000     -74.02720000
S      -47.93790000     -29.67880000     -70.56870000
S      -46.71620000     -29.42280000     -73.51640000
H      -45.47090000     -31.08110000     -74.89820000
