40
Properties=species:S:1:pos:R:3 #=T CELL(abcABC):=T 1.889726e+02=T 90.00000=T Traj:=T positionsangstrom=T Step:=T 0=T Bead:=T pbc="F F F"
C      -47.35860000     -33.70650000     -68.07360000
C      -46.87280000     -32.46570000     -68.56270000
C      -47.42300000     -31.98570000     -69.78160000
C      -48.47940000     -32.69380000     -70.39840000
C      -48.91700000     -33.88890000     -69.88120000
C      -48.44920000     -34.36150000     -68.67940000
H      -46.89310000     -34.09380000     -67.17360000
H      -47.24930000     -30.98420000     -70.06610000
H      -49.79590000     -34.30830000     -70.40090000
H      -48.77840000     -35.27410000     -68.27070000
C      -49.06950000     -32.32480000     -71.76100000
H      -49.36150000     -31.29150000     -71.80710000
H      -49.98410000     -32.92290000     -71.88940000
C      -45.85190000     -31.73360000     -67.78740000
H      -45.50010000     -30.93190000     -68.36880000
H      -46.33970000     -31.34280000     -66.89220000
S      -48.06780000     -32.65350000     -73.21700000
S      -44.41560000     -32.74490000     -67.32920000
C      -47.61350000     -34.44560000     -73.04290000
H      -48.41700000     -34.81770000     -72.44270000
H      -47.58030000     -35.12040000     -73.90850000
C      -43.38190000     -32.88230000     -68.92970000
H      -42.41200000     -33.28930000     -68.69630000
H      -43.27290000     -31.91230000     -69.36250000
C      -43.96250000     -33.78450000     -69.98090000
H      -43.97360000     -34.88430000     -69.74240000
H      -45.05880000     -33.54630000     -70.23680000
C      -46.24810000     -34.81070000     -72.31050000
H      -46.29360000     -35.93930000     -72.14280000
H      -46.27060000     -34.36610000     -71.31770000
C      -44.95920000     -34.50900000     -73.08900000
C      -44.96200000     -34.42610000     -74.47950000
C      -43.65040000     -34.16500000     -72.56070000
H      -45.91110000     -34.53460000     -74.99180000
C      -42.68540000     -33.92460000     -73.63390000
C      -43.19960000     -33.70640000     -71.28070000
C      -41.91300000     -33.19550000     -71.35990000
S      -43.39040000     -34.06800000     -75.13170000
S      -41.21400000     -33.21100000     -72.91240000
H      -41.34700000     -32.82340000     -70.49280000
