40
Properties=species:S:1:pos:R:3 #=T CELL(abcABC):=T 1.889726e+02=T 90.00000=T Traj:=T positionsangstrom=T Step:=T 0=T Bead:=T pbc="F F F"
C      -43.79800000     -37.30910000     -71.81840000
C      -42.94880000     -36.25210000     -71.49080000
C      -43.14630000     -35.53120000     -70.29630000
C      -44.15330000     -35.99050000     -69.39110000
C      -44.88560000     -37.14070000     -69.68960000
C      -44.80790000     -37.71930000     -70.95130000
H      -43.65690000     -37.70090000     -72.81040000
H      -42.56680000     -34.65860000     -70.01450000
H      -45.59380000     -37.54090000     -69.06710000
H      -45.54400000     -38.42440000     -71.27300000
C      -44.32300000     -35.24840000     -68.05310000
H      -43.95270000     -34.24240000     -68.08280000
H      -43.99790000     -35.80880000     -67.14890000
C      -42.03570000     -35.64680000     -72.57180000
H      -41.20160000     -34.96110000     -72.12390000
H      -41.55050000     -36.42850000     -73.09380000
S      -46.12350000     -35.01660000     -67.74870000
S      -42.88980000     -34.91980000     -73.95970000
C      -46.44790000     -33.35450000     -68.54550000
H      -47.52870000     -33.09760000     -68.26390000
H      -45.82720000     -32.58640000     -67.97840000
C      -43.56580000     -33.21610000     -73.47940000
H      -43.45550000     -32.51430000     -74.33220000
H      -42.91660000     -32.81230000     -72.63040000
C      -45.05930000     -33.35070000     -72.98270000
H      -45.51880000     -33.96250000     -73.80810000
H      -45.02620000     -33.88750000     -72.05580000
C      -46.19870000     -33.21040000     -70.03480000
H      -46.66230000     -33.99640000     -70.65360000
H      -45.12480000     -33.33000000     -70.13130000
C      -46.67120000     -31.81320000     -70.51870000
C      -47.47320000     -30.88990000     -69.88370000
C      -46.44120000     -31.38970000     -71.84890000
H      -47.61240000     -30.78910000     -68.81570000
C      -46.86080000     -30.12310000     -72.14650000
C      -45.75770000     -32.00690000     -73.00670000
C      -45.88700000     -31.18130000     -74.11620000
S      -47.81940000     -29.49910000     -70.80680000
S      -46.68060000     -29.61410000     -73.82560000
H      -45.48920000     -31.38900000     -75.13050000
