40
Properties=species:S:1:pos:R:3 #=T CELL(abcABC):=T 1.889726e+02=T 90.00000=T Traj:=T positionsangstrom=T Step:=T 0=T Bead:=T pbc="F F F"
C      -43.30020000     -36.85390000     -72.39740000
C      -42.62200000     -35.78450000     -71.85110000
C      -42.80860000     -35.57700000     -70.49290000
C      -43.74690000     -36.28530000     -69.69620000
C      -44.45340000     -37.30100000     -70.31340000
C      -44.24280000     -37.63220000     -71.63930000
H      -43.02570000     -37.10280000     -73.41640000
H      -42.17430000     -34.82110000     -70.00910000
H      -45.13970000     -37.88570000     -69.82050000
H      -44.65520000     -38.47520000     -72.18780000
C      -44.06180000     -35.78940000     -68.36370000
H      -43.58030000     -34.88380000     -68.09920000
H      -43.71620000     -36.53350000     -67.61700000
C      -41.70810000     -34.96660000     -72.72160000
H      -41.13120000     -34.24270000     -72.15670000
H      -40.94830000     -35.60960000     -73.25450000
S      -45.96590000     -35.66540000     -68.23120000
S      -42.76640000     -34.09430000     -73.91770000
C      -46.26650000     -33.95730000     -68.75510000
H      -47.07360000     -33.46710000     -68.18800000
H      -45.33200000     -33.46880000     -68.48390000
C      -43.71470000     -32.93810000     -72.82930000
H      -43.18300000     -32.00630000     -72.87080000
H      -43.79780000     -33.18300000     -71.79150000
C      -45.14410000     -33.00020000     -73.40540000
H      -45.16590000     -32.89910000     -74.45180000
H      -45.72290000     -33.91650000     -73.27710000
C      -46.63610000     -33.70120000     -70.22510000
H      -47.48540000     -34.27480000     -70.49340000
H      -45.78020000     -34.02720000     -70.90030000
C      -46.98990000     -32.18650000     -70.42860000
C      -47.78670000     -31.42460000     -69.57930000
C      -46.70730000     -31.49870000     -71.65500000
H      -48.23980000     -31.67110000     -68.62600000
C      -47.26600000     -30.17940000     -71.65300000
C      -46.03980000     -31.77570000     -72.93790000
C      -46.14060000     -30.72220000     -73.77050000
S      -48.21270000     -29.87740000     -70.29450000
S      -46.92770000     -29.30310000     -73.09700000
H      -45.48650000     -30.76580000     -74.72250000
