40
Properties=species:S:1:pos:R:3 #=T CELL(abcABC):=T 1.889726e+02=T 90.00000=T Traj:=T positionsangstrom=T Step:=T 0=T Bead:=T pbc="F F F"
C      -43.22540000     -36.92660000     -72.46350000
C      -42.59960000     -35.82370000     -71.92530000
C      -42.89320000     -35.55760000     -70.57360000
C      -43.71780000     -36.37850000     -69.84380000
C      -44.39250000     -37.43930000     -70.43160000
C      -44.17950000     -37.69450000     -71.77780000
H      -43.08580000     -37.07990000     -73.49180000
H      -42.34750000     -34.63780000     -70.19740000
H      -45.17950000     -37.95490000     -69.88740000
H      -44.57670000     -38.61720000     -72.23380000
C      -44.09270000     -35.94630000     -68.42830000
H      -43.72840000     -34.94700000     -68.21390000
H      -43.75820000     -36.74380000     -67.74310000
C      -41.65340000     -34.94630000     -72.72470000
H      -41.07090000     -34.33170000     -72.04980000
H      -40.93270000     -35.55730000     -73.31610000
S      -45.98720000     -35.74570000     -68.21250000
S      -42.64310000     -33.86040000     -73.88760000
C      -46.43410000     -33.97920000     -68.70710000
H      -47.35440000     -33.94940000     -68.31660000
H      -45.79750000     -33.26970000     -68.07860000
C      -43.79490000     -32.85220000     -72.91020000
H      -43.54360000     -31.78760000     -72.97450000
H      -43.75460000     -33.11330000     -71.83130000
C      -45.38970000     -32.90260000     -73.38870000
H      -45.35430000     -33.13450000     -74.43190000
H      -45.74890000     -33.77920000     -72.81100000
C      -46.35790000     -33.66360000     -70.20890000
H      -47.02960000     -34.45580000     -70.61450000
H      -45.33400000     -33.76330000     -70.58040000
C      -46.89490000     -32.28100000     -70.52250000
C      -47.80720000     -31.65070000     -69.65960000
C      -46.68630000     -31.50700000     -71.71390000
H      -48.19140000     -31.94140000     -68.68300000
C      -47.33180000     -30.28520000     -71.61890000
C      -46.07150000     -31.62930000     -72.99540000
C      -46.09000000     -30.45440000     -73.68680000
S      -48.16990000     -30.02560000     -70.11240000
S      -47.05690000     -29.17220000     -73.00950000
H      -45.62260000     -30.40600000     -74.72020000
