40
Properties=species:S:1:pos:R:3 #=T CELL(abcABC):=T 1.889726e+02=T 90.00000=T Traj:=T positionsangstrom=T Step:=T 0=T Bead:=T pbc="F F F"
C      -48.95590000     -33.27100000     -71.35770000
C      -48.49740000     -32.53720000     -70.25300000
C      -47.91640000     -33.16390000     -69.16420000
C      -47.74870000     -34.55680000     -69.13290000
C      -48.09260000     -35.30030000     -70.27280000
C      -48.70910000     -34.63670000     -71.37110000
H      -49.49480000     -32.73410000     -72.21240000
H      -47.43690000     -32.55080000     -68.31850000
H      -47.92440000     -36.45000000     -70.33230000
H      -49.07210000     -35.30640000     -72.24970000
C      -47.01770000     -35.20620000     -68.01590000
H      -47.20280000     -36.26820000     -67.79640000
H      -47.32480000     -34.71660000     -67.03410000
C      -48.56630000     -31.01830000     -70.22470000
H      -49.23440000     -30.50890000     -70.89930000
H      -48.95640000     -30.74820000     -69.17160000
S      -45.18010000     -34.80960000     -67.84930000
S      -46.79810000     -30.35950000     -70.40000000
C      -44.51760000     -35.32640000     -69.46390000
H      -43.49280000     -35.63770000     -69.34280000
H      -45.13900000     -36.17680000     -69.77120000
C      -46.14130000     -31.36720000     -71.77400000
H      -46.49700000     -31.04000000     -72.73560000
H      -46.37210000     -32.41430000     -71.63110000
C      -44.63450000     -31.04940000     -71.81270000
H      -44.45730000     -30.02550000     -72.08350000
H      -44.23000000     -31.20580000     -70.77900000
C      -44.54150000     -34.14150000     -70.39110000
H      -43.92940000     -33.25630000     -69.99000000
H      -45.51870000     -33.62400000     -70.42960000
C      -43.92530000     -34.41800000     -71.74990000
C      -43.30310000     -35.58680000     -72.19890000
C      -43.53430000     -33.30630000     -72.61870000
H      -43.41230000     -36.59090000     -71.73550000
C      -42.75870000     -33.79920000     -73.69860000
C      -43.80920000     -31.88800000     -72.78330000
C      -43.19790000     -31.31760000     -73.87930000
S      -42.53370000     -35.53310000     -73.68600000
S      -42.29890000     -32.48580000     -74.86920000
H      -43.18210000     -30.22750000     -74.05190000
