40
Properties=species:S:1:pos:R:3 #=T CELL(abcABC):=T 1.889726e+02=T 90.00000=T Traj:=T positionsangstrom=T Step:=T 0=T Bead:=T pbc="F F F"
C      -43.90580000     -37.43600000     -71.56610000
C      -43.19520000     -36.21440000     -71.36770000
C      -43.38750000     -35.32100000     -70.23890000
C      -44.31030000     -35.79930000     -69.29690000
C      -45.15530000     -36.91970000     -69.57960000
C      -44.95870000     -37.74340000     -70.70310000
H      -43.71760000     -38.10780000     -72.39410000
H      -42.70110000     -34.52400000     -70.06950000
H      -45.86470000     -37.19960000     -68.87670000
H      -45.65690000     -38.60070000     -70.82520000
C      -44.56230000     -35.04980000     -68.01500000
H      -43.98400000     -34.12910000     -68.01410000
H      -44.18260000     -35.78080000     -67.22570000
C      -42.05640000     -35.81610000     -72.28340000
H      -41.34250000     -35.10560000     -71.75050000
H      -41.62220000     -36.68850000     -72.62840000
S      -46.29400000     -34.69360000     -67.53440000
S      -42.70950000     -34.98890000     -73.89410000
C      -46.74590000     -33.06480000     -68.42550000
H      -47.87600000     -33.13030000     -68.50550000
H      -46.43390000     -32.22810000     -67.83930000
C      -43.60660000     -33.45690000     -73.42930000
H      -43.49770000     -32.97350000     -74.38720000
H      -43.08750000     -32.84470000     -72.69930000
C      -45.07350000     -33.59640000     -73.07300000
H      -45.62660000     -34.24390000     -73.78230000
H      -45.13400000     -33.96450000     -72.07910000
C      -46.00290000     -32.94910000     -69.76840000
H      -46.26470000     -33.92140000     -70.27930000
H      -44.94660000     -32.99210000     -69.57900000
C      -46.44300000     -31.75450000     -70.54860000
C      -47.13950000     -30.66500000     -70.00710000
C      -46.40020000     -31.58180000     -72.02550000
H      -47.32240000     -30.63620000     -68.96020000
C      -46.85620000     -30.29170000     -72.43610000
C      -45.76340000     -32.23290000     -73.13740000
C      -45.84080000     -31.54520000     -74.30910000
S      -47.57050000     -29.41480000     -71.07990000
S      -46.54040000     -29.90140000     -74.13570000
H      -45.43540000     -31.91480000     -75.20270000
