40
Properties=species:S:1:pos:R:3 #=T CELL(abcABC):=T 1.889726e+02=T 90.00000=T Traj:=T positionsangstrom=T Step:=T 0=T Bead:=T pbc="F F F"
C      -48.59230000     -33.80990000     -71.56790000
C      -48.34420000     -32.94400000     -70.51200000
C      -47.82450000     -33.47720000     -69.32260000
C      -47.61790000     -34.81730000     -69.18490000
C      -48.04100000     -35.76860000     -70.17790000
C      -48.45670000     -35.22130000     -71.36600000
H      -48.94520000     -33.46910000     -72.49300000
H      -47.44730000     -32.88210000     -68.57460000
H      -47.75310000     -36.73990000     -70.08460000
H      -48.73260000     -35.88510000     -72.13280000
C      -46.98710000     -35.22650000     -67.90600000
H      -46.93710000     -36.34860000     -67.86620000
H      -47.59590000     -35.05430000     -66.98840000
C      -48.45140000     -31.38270000     -70.52110000
H      -49.09050000     -31.18640000     -71.45790000
H      -49.00060000     -30.98480000     -69.68620000
S      -45.31730000     -34.48240000     -67.70770000
S      -46.84220000     -30.45890000     -70.38500000
C      -44.49740000     -35.01380000     -69.26680000
H      -43.49070000     -35.38100000     -69.02090000
H      -45.00680000     -35.91980000     -69.65750000
C      -45.87730000     -30.87660000     -71.94540000
H      -46.09050000     -30.18680000     -72.75360000
H      -46.17340000     -31.81420000     -72.39490000
C      -44.35750000     -30.79600000     -71.78560000
H      -44.03910000     -29.75780000     -71.95770000
H      -43.94610000     -31.00770000     -70.81920000
C      -44.49350000     -33.77730000     -70.27680000
H      -43.97160000     -32.93990000     -69.83580000
H      -45.59900000     -33.65690000     -70.56320000
C      -43.79630000     -34.07640000     -71.54030000
C      -43.36740000     -35.29940000     -71.90350000
C      -43.55950000     -33.11100000     -72.59740000
H      -43.37900000     -36.17480000     -71.27560000
C      -43.01900000     -33.71680000     -73.70790000
C      -43.65980000     -31.67310000     -72.81700000
C      -43.20280000     -31.30940000     -74.07570000
S      -42.69350000     -35.43700000     -73.49590000
S      -42.67800000     -32.64920000     -75.04990000
H      -43.28880000     -30.35410000     -74.56050000
