40
Properties=species:S:1:pos:R:3 #=T CELL(abcABC):=T 1.889726e+02=T 90.00000=T Traj:=T positionsangstrom=T Step:=T 0=T Bead:=T pbc="F F F"
C      -44.39250000     -36.74770000     -68.85570000
C      -43.69050000     -36.33000000     -69.96330000
C      -43.06180000     -35.08850000     -69.99540000
C      -43.05520000     -34.30660000     -68.82000000
C      -43.79720000     -34.73640000     -67.68310000
C      -44.43110000     -35.98270000     -67.69650000
H      -44.79260000     -37.70000000     -68.84350000
H      -42.54380000     -34.66180000     -70.87500000
H      -43.85430000     -34.12670000     -66.74470000
H      -44.98290000     -36.39110000     -66.85130000
C      -42.43840000     -32.93300000     -68.79980000
H      -41.54870000     -32.76200000     -69.47350000
H      -42.18280000     -32.63500000     -67.76180000
C      -43.64620000     -37.24630000     -71.14140000
H      -42.74110000     -37.71060000     -71.20860000
H      -44.38690000     -38.00820000     -71.02580000
S      -43.68710000     -31.63640000     -69.27280000
S      -43.90930000     -36.40110000     -72.70130000
C      -43.25300000     -31.33480000     -70.97610000
H      -43.19200000     -30.19910000     -71.08410000
H      -42.22610000     -31.72360000     -71.27350000
C      -45.41770000     -35.29540000     -72.16980000
H      -44.95100000     -34.72670000     -71.31460000
H      -46.19280000     -35.92500000     -71.78690000
C      -45.85910000     -34.48520000     -73.36550000
H      -44.98490000     -33.99240000     -73.72840000
H      -46.22130000     -35.14770000     -74.20000000
C      -44.21320000     -32.00630000     -72.02590000
H      -44.13980000     -33.01500000     -71.83590000
H      -43.77220000     -31.89200000     -73.00010000
C      -45.57920000     -31.42760000     -72.07880000
C      -45.96700000     -30.18810000     -71.66950000
C      -46.64990000     -32.11910000     -72.75170000
H      -45.38780000     -29.56610000     -71.00270000
C      -47.85230000     -31.42350000     -72.80640000
C      -46.92090000     -33.48170000     -73.23150000
C      -48.24390000     -33.70000000     -73.64540000
S      -47.66000000     -29.80080000     -72.05920000
S      -49.20950000     -32.26490000     -73.53110000
H      -48.56060000     -34.71420000     -74.00930000
