40
Properties=species:S:1:pos:R:3 #=T CELL(abcABC):=T 1.889726e+02=T 90.00000=T Traj:=T positionsangstrom=T Step:=T 0=T Bead:=T pbc="F F F"
C      -44.61520000     -37.65450000     -69.97830000
C      -43.79250000     -36.49360000     -70.12790000
C      -44.03430000     -35.41150000     -69.25670000
C      -45.02730000     -35.45010000     -68.30970000
C      -45.85220000     -36.59050000     -68.25010000
C      -45.69860000     -37.71900000     -69.05870000
H      -44.33030000     -38.59510000     -70.64410000
H      -43.35510000     -34.53120000     -69.19820000
H      -46.66930000     -36.51840000     -67.51170000
H      -46.35610000     -38.59120000     -69.01700000
C      -45.28720000     -34.20080000     -67.48640000
H      -44.58880000     -33.45360000     -67.76570000
H      -45.23970000     -34.42700000     -66.42200000
C      -42.73360000     -36.32620000     -71.16540000
H      -42.14440000     -35.38760000     -71.03980000
H      -42.04610000     -37.18920000     -71.19930000
S      -46.94030000     -33.53320000     -67.84480000
S      -43.45640000     -36.23620000     -72.89160000
C      -46.54250000     -32.02270000     -68.85220000
H      -47.36150000     -31.38280000     -68.86730000
H      -45.78530000     -31.45810000     -68.33300000
C      -43.79420000     -34.39000000     -73.04140000
H      -43.35150000     -34.10490000     -73.94450000
H      -43.17350000     -33.80760000     -72.35240000
C      -45.33100000     -34.04960000     -73.04240000
H      -45.87950000     -34.72630000     -73.67750000
H      -45.79090000     -34.20030000     -72.09090000
C      -46.01430000     -32.42870000     -70.31340000
H      -46.60720000     -33.22890000     -70.74970000
H      -44.97940000     -32.80260000     -70.30410000
C      -45.94360000     -31.29830000     -71.33300000
C      -46.22000000     -30.00140000     -71.00580000
C      -45.81170000     -31.51190000     -72.74760000
H      -46.27510000     -29.55440000     -70.07510000
C      -45.75820000     -30.30400000     -73.49320000
C      -45.48940000     -32.62210000     -73.55260000
C      -45.35050000     -32.23540000     -74.89860000
S      -46.17270000     -28.99180000     -72.45490000
S      -45.70030000     -30.57270000     -75.25960000
H      -45.07610000     -33.03680000     -75.62690000
