40
Properties=species:S:1:pos:R:3 #=T CELL(abcABC):=T 1.889726e+02=T 90.00000=T Traj:=T positionsangstrom=T Step:=T 0=T Bead:=T pbc="F F F"
C      -45.79990000     -35.66380000     -69.16100000
C      -44.62560000     -36.02210000     -69.79340000
C      -43.49870000     -35.18790000     -69.88820000
C      -43.48450000     -34.00060000     -69.08390000
C      -44.64130000     -33.68590000     -68.31100000
C      -45.79810000     -34.46270000     -68.41970000
H      -46.61540000     -36.34730000     -69.02740000
H      -42.73790000     -35.40950000     -70.53110000
H      -44.54730000     -32.86090000     -67.56900000
H      -46.74460000     -34.27400000     -67.87250000
C      -42.24210000     -33.13770000     -69.18250000
H      -41.44540000     -33.62010000     -69.77090000
H      -41.96480000     -32.97860000     -68.15840000
C      -44.58740000     -37.31000000     -70.58600000
H      -43.76170000     -37.97800000     -70.34410000
H      -45.56050000     -37.76530000     -70.55080000
S      -42.38370000     -31.40830000     -70.01130000
S      -44.35960000     -36.94490000     -72.47530000
C      -42.64040000     -31.75700000     -71.71580000
H      -42.51980000     -30.79800000     -72.22500000
H      -41.68160000     -32.26210000     -72.02910000
C      -45.94070000     -35.94500000     -72.80210000
H      -46.49340000     -35.67620000     -71.87850000
H      -46.69110000     -36.52070000     -73.31280000
C      -45.73960000     -34.65880000     -73.68300000
H      -44.74420000     -34.27550000     -73.57750000
H      -45.85990000     -34.75860000     -74.76710000
C      -43.89900000     -32.46250000     -72.13860000
H      -44.02350000     -33.38930000     -71.54760000
H      -43.74390000     -32.75170000     -73.20120000
C      -45.18970000     -31.65970000     -71.94940000
C      -45.38660000     -30.46990000     -71.34430000
C      -46.38630000     -32.32080000     -72.52930000
H      -44.62550000     -29.90870000     -70.79320000
C      -47.46730000     -31.59270000     -72.19280000
C      -46.72270000     -33.57430000     -73.26270000
C      -48.07390000     -33.59750000     -73.54700000
S      -47.13100000     -30.07280000     -71.25460000
S      -49.04440000     -32.14110000     -72.93630000
H      -48.57590000     -34.33980000     -74.26060000
