40
Properties=species:S:1:pos:R:3 #=T CELL(abcABC):=T 1.889726e+02=T 90.00000=T Traj:=T positionsangstrom=T Step:=T 0=T Bead:=T pbc="F F F"
C      -44.20850000     -37.73520000     -69.93010000
C      -43.64110000     -36.53100000     -70.28770000
C      -44.10720000     -35.35290000     -69.68640000
C      -45.08730000     -35.38220000     -68.72170000
C      -45.68020000     -36.58620000     -68.36040000
C      -45.21550000     -37.82390000     -68.95660000
H      -43.91330000     -38.58530000     -70.45400000
H      -43.67140000     -34.41900000     -70.01760000
H      -46.38000000     -36.64220000     -67.53130000
H      -45.57080000     -38.82240000     -68.67010000
C      -45.29180000     -34.11670000     -67.88910000
H      -44.51490000     -33.42030000     -68.27160000
H      -44.97250000     -34.29780000     -66.92600000
C      -42.49600000     -36.36280000     -71.21730000
H      -41.78380000     -35.56330000     -70.79790000
H      -41.83700000     -37.25740000     -71.23780000
S      -46.92130000     -33.48890000     -67.82840000
S      -42.94790000     -35.98540000     -72.99540000
C      -46.76770000     -31.99910000     -68.89080000
H      -47.82120000     -31.72590000     -68.99390000
H      -46.25820000     -31.17330000     -68.36440000
C      -43.75540000     -34.25970000     -72.95570000
H      -43.21270000     -33.82420000     -73.83360000
H      -43.30730000     -33.87870000     -72.05340000
C      -45.27440000     -34.11330000     -72.97970000
H      -45.68630000     -34.85440000     -73.67700000
H      -45.69950000     -34.30020000     -71.97960000
C      -46.11220000     -32.46580000     -70.14780000
H      -46.54460000     -33.34750000     -70.62040000
H      -45.09280000     -32.65400000     -69.93020000
C      -46.18220000     -31.32730000     -71.16660000
C      -46.47220000     -30.05300000     -70.87210000
C      -45.95030000     -31.54950000     -72.62300000
H      -46.79200000     -29.69860000     -69.88510000
C      -46.19010000     -30.42070000     -73.37920000
C      -45.58090000     -32.70490000     -73.50780000
C      -45.42810000     -32.31720000     -74.81100000
S      -46.41810000     -29.06440000     -72.31970000
S      -45.94990000     -30.63500000     -75.12860000
H      -45.26180000     -32.97610000     -75.66950000
