40
Properties=species:S:1:pos:R:3 #=T CELL(abcABC):=T 1.889726e+02=T 90.00000=T Traj:=T positionsangstrom=T Step:=T 0=T Bead:=T pbc="F F F"
C      -44.49730000     -36.82990000     -68.73890000
C      -43.67150000     -36.48020000     -69.84290000
C      -42.86860000     -35.34770000     -69.74280000
C      -43.06420000     -34.42530000     -68.73900000
C      -43.90880000     -34.72080000     -67.69880000
C      -44.56110000     -35.98250000     -67.65580000
H      -45.22870000     -37.56590000     -68.76670000
H      -42.16630000     -35.02690000     -70.62210000
H      -44.10210000     -33.88870000     -66.93230000
H      -45.15860000     -36.21970000     -66.78520000
C      -42.35950000     -33.06970000     -68.88190000
H      -41.68100000     -33.15570000     -69.73950000
H      -41.76640000     -32.95360000     -68.04000000
C      -43.73450000     -37.24040000     -71.11810000
H      -42.81340000     -37.87460000     -71.31030000
H      -44.64410000     -37.91170000     -71.17930000
S      -43.47530000     -31.63790000     -69.30040000
S      -43.87710000     -36.09230000     -72.57820000
C      -43.13490000     -31.27430000     -71.08380000
H      -43.27390000     -30.21500000     -71.10300000
H      -42.11960000     -31.47750000     -71.35290000
C      -45.50150000     -35.33860000     -72.37500000
H      -45.48940000     -34.56300000     -71.54130000
H      -46.27690000     -36.07040000     -72.11890000
C      -45.92920000     -34.54800000     -73.70920000
H      -44.99440000     -34.25080000     -74.21150000
H      -46.40550000     -35.35890000     -74.27390000
C      -44.16580000     -31.99220000     -72.08390000
H      -44.16610000     -33.09560000     -71.85090000
H      -43.59790000     -31.96450000     -73.09520000
C      -45.59170000     -31.44620000     -72.18770000
C      -45.94020000     -30.19170000     -71.75560000
C      -46.72760000     -32.16060000     -72.76250000
H      -45.42650000     -29.46220000     -71.11900000
C      -47.91300000     -31.48370000     -72.56310000
C      -46.94360000     -33.44060000     -73.45970000
C      -48.28470000     -33.58260000     -73.83560000
S      -47.66780000     -29.87600000     -72.01410000
S      -49.28050000     -32.20750000     -73.38670000
H      -48.69510000     -34.44270000     -74.39100000
