40
Properties=species:S:1:pos:R:3 #=T CELL(abcABC):=T 1.889726e+02=T 90.00000=T Traj:=T positionsangstrom=T Step:=T 0=T Bead:=T pbc="F F F"
C      -47.96900000     -31.90290000     -71.85110000
C      -47.85530000     -31.59950000     -70.50120000
C      -48.08010000     -32.67800000     -69.58940000
C      -48.42450000     -33.98780000     -70.01100000
C      -48.44800000     -34.21770000     -71.42700000
C      -48.18350000     -33.22830000     -72.32360000
H      -47.89990000     -31.10000000     -72.60770000
H      -48.07230000     -32.57210000     -68.50530000
H      -48.68570000     -35.21740000     -71.78790000
H      -48.30970000     -33.50260000     -73.35890000
C      -48.41360000     -35.08530000     -68.93130000
H      -49.14720000     -35.80990000     -69.16890000
H      -48.80510000     -34.46480000     -68.09080000
C      -47.56790000     -30.22500000     -70.01100000
H      -48.01490000     -29.43610000     -70.53420000
H      -47.90010000     -30.25280000     -68.94160000
S      -46.78870000     -35.78380000     -68.47710000
S      -45.75180000     -30.07310000     -69.79220000
C      -45.93860000     -35.89540000     -70.06750000
H      -45.29990000     -36.77770000     -69.93630000
H      -46.69820000     -36.11110000     -70.89110000
C      -44.88020000     -30.78500000     -71.34810000
H      -44.68750000     -30.06510000     -72.10790000
H      -45.54590000     -31.52840000     -71.77060000
C      -43.59860000     -31.43510000     -70.85300000
H      -42.91430000     -30.60670000     -70.72510000
H      -43.94410000     -31.96560000     -69.95080000
C      -45.09510000     -34.65950000     -70.36820000
H      -44.43330000     -34.50360000     -69.52810000
H      -45.80760000     -33.74360000     -70.51390000
C      -44.13630000     -34.76870000     -71.57810000
C      -44.03180000     -35.93880000     -72.28590000
C      -43.38860000     -33.74140000     -72.22180000
H      -44.48280000     -36.88430000     -71.92750000
C      -42.71340000     -34.17070000     -73.32730000
C      -43.07490000     -32.39520000     -71.98160000
C      -42.19300000     -31.80910000     -72.90500000
S      -43.01170000     -35.84190000     -73.69990000
S      -41.96750000     -32.88180000     -74.21790000
H      -42.01970000     -30.76370000     -72.93970000
