40
Properties=species:S:1:pos:R:3 #=T CELL(abcABC):=T 1.889726e+02=T 90.00000=T Traj:=T positionsangstrom=T Step:=T 0=T Bead:=T pbc="F F F"
C      -46.21630000     -36.69510000     -70.09360000
C      -46.91930000     -35.57780000     -69.60550000
C      -48.01100000     -35.17140000     -70.36690000
C      -48.19360000     -35.50040000     -71.66430000
C      -47.33370000     -36.50490000     -72.20230000
C      -46.42980000     -37.15150000     -71.40580000
H      -45.36530000     -37.15870000     -69.47240000
H      -48.77300000     -34.55840000     -69.90810000
H      -47.47150000     -36.86510000     -73.23430000
H      -45.93980000     -38.08720000     -71.78030000
C      -49.12060000     -34.69860000     -72.63560000
H      -49.61680000     -33.96010000     -72.04820000
H      -49.83090000     -35.36850000     -73.25370000
C      -46.88560000     -35.06670000     -68.23950000
H      -47.77940000     -35.17360000     -67.68260000
H      -46.12390000     -35.59390000     -67.62840000
S      -48.11090000     -33.84750000     -73.85930000
S      -46.38860000     -33.29340000     -67.91170000
C      -47.07800000     -32.93380000     -72.67900000
H      -47.04420000     -31.86560000     -72.94570000
H      -47.61050000     -32.99830000     -71.69560000
C      -45.46800000     -32.73770000     -69.39780000
H      -45.13260000     -31.70970000     -69.09560000
H      -46.19250000     -32.59530000     -70.20060000
C      -44.21810000     -33.64580000     -69.75950000
H      -43.81200000     -34.05870000     -68.84250000
H      -44.49280000     -34.43240000     -70.45260000
C      -45.62240000     -33.45680000     -72.68860000
H      -45.44490000     -34.05090000     -73.61980000
H      -45.46080000     -34.22980000     -71.95160000
C      -44.53570000     -32.38310000     -72.74120000
C      -44.16370000     -31.66340000     -73.87110000
C      -43.46960000     -32.19530000     -71.68850000
H      -44.71390000     -31.56320000     -74.80470000
C      -42.47350000     -31.31490000     -72.06710000
C      -43.28470000     -32.66110000     -70.41030000
C      -42.17040000     -32.21280000     -69.71960000
S      -42.62080000     -30.78210000     -73.70110000
S      -41.28760000     -31.10400000     -70.72050000
H      -42.19000000     -32.23690000     -68.62040000
