40
Properties=species:S:1:pos:R:3 #=T CELL(abcABC):=T 1.889726e+02=T 90.00000=T Traj:=T positionsangstrom=T Step:=T 0=T Bead:=T pbc="F F F"
C      -45.61000000     -37.20750000     -69.63600000
C      -44.55110000     -36.27060000     -69.83530000
C      -44.46750000     -35.11090000     -69.08530000
C      -45.47810000     -34.76300000     -68.15600000
C      -46.53250000     -35.65790000     -68.00720000
C      -46.59790000     -36.89670000     -68.66780000
H      -45.73160000     -38.14670000     -70.26780000
H      -43.70330000     -34.41750000     -69.46340000
H      -47.44840000     -35.29520000     -67.42770000
H      -47.34370000     -37.64550000     -68.48490000
C      -45.54270000     -33.37780000     -67.53270000
H      -44.72960000     -32.73210000     -67.90020000
H      -45.46830000     -33.63090000     -66.48810000
C      -43.38210000     -36.59130000     -70.71590000
H      -42.75300000     -35.68540000     -70.64090000
H      -42.80460000     -37.42240000     -70.23090000
S      -47.07460000     -32.40150000     -67.73170000
S      -43.61040000     -37.01280000     -72.52630000
C      -46.84880000     -31.51040000     -69.32290000
H      -47.84880000     -31.35680000     -69.76390000
H      -46.51800000     -30.51000000     -69.09260000
C      -43.64940000     -35.27590000     -73.29700000
H      -43.66120000     -35.37380000     -74.31960000
H      -42.66830000     -34.74840000     -73.06060000
C      -44.83040000     -34.43830000     -72.79240000
H      -45.77750000     -34.93990000     -72.68630000
H      -44.54800000     -34.34300000     -71.77060000
C      -46.05040000     -32.31360000     -70.39010000
H      -46.76990000     -33.08200000     -70.71560000
H      -45.20900000     -32.87900000     -70.05600000
C      -45.74440000     -31.32840000     -71.56930000
C      -46.06040000     -29.96910000     -71.53380000
C      -45.19480000     -31.77780000     -72.83730000
H      -46.57850000     -29.47600000     -70.77110000
C      -45.19310000     -30.73660000     -73.75260000
C      -44.98950000     -33.07240000     -73.41690000
C      -44.84170000     -32.97490000     -74.79590000
S      -45.51040000     -29.16260000     -73.02940000
S      -45.06380000     -31.34570000     -75.37980000
H      -44.56820000     -33.71360000     -75.57510000
