40
Properties=species:S:1:pos:R:3 #=T CELL(abcABC):=T 1.889726e+02=T 90.00000=T Traj:=T positionsangstrom=T Step:=T 0=T Bead:=T pbc="F F F"
C      -47.07240000     -34.07180000     -67.96080000
C      -46.87360000     -32.73780000     -68.39830000
C      -47.58040000     -32.23460000     -69.43800000
C      -48.53490000     -33.01680000     -70.14960000
C      -48.81630000     -34.32320000     -69.62320000
C      -48.08260000     -34.83190000     -68.56320000
H      -46.60360000     -34.41990000     -67.05530000
H      -47.32250000     -31.25550000     -69.85050000
H      -49.57690000     -34.92630000     -70.14000000
H      -48.34820000     -35.73620000     -68.14100000
C      -49.26890000     -32.52710000     -71.44260000
H      -49.55290000     -31.47440000     -71.45220000
H      -50.06800000     -33.15990000     -71.74350000
C      -45.82930000     -31.93810000     -67.65980000
H      -45.59330000     -30.93400000     -68.07880000
H      -46.13850000     -31.81950000     -66.60180000
S      -48.00490000     -32.51410000     -72.77500000
S      -44.29230000     -32.87580000     -67.39020000
C      -47.61190000     -34.35670000     -72.99800000
H      -48.37670000     -34.92990000     -72.49290000
H      -47.76590000     -34.36850000     -74.12690000
C      -43.51090000     -32.62990000     -69.07720000
H      -42.45050000     -32.56260000     -68.97750000
H      -43.92710000     -31.60600000     -69.39550000
C      -43.93050000     -33.81070000     -70.06350000
H      -43.62620000     -34.72900000     -69.68480000
H      -45.02100000     -33.75520000     -70.13920000
C      -46.24240000     -34.66660000     -72.51380000
H      -46.13320000     -35.76330000     -72.37040000
H      -46.06130000     -34.22870000     -71.52420000
C      -45.03670000     -34.17570000     -73.30550000
C      -44.98910000     -34.42180000     -74.65070000
C      -43.86900000     -33.59200000     -72.78300000
H      -45.59160000     -35.13640000     -75.29460000
C      -42.84030000     -33.51870000     -73.75620000
C      -43.25480000     -33.57830000     -71.48970000
C      -41.85790000     -33.31120000     -71.49870000
S      -43.49230000     -33.82800000     -75.37840000
S      -41.25690000     -33.12720000     -73.14310000
H      -41.15530000     -33.42280000     -70.70140000
