40
Properties=species:S:1:pos:R:3 #=T CELL(abcABC):=T 1.889726e+02=T 90.00000=T Traj:=T positionsangstrom=T Step:=T 0=T Bead:=T pbc="F F F"
C      -44.70130000     -34.69960000     -67.61660000
C      -44.19270000     -35.38940000     -68.72660000
C      -43.25610000     -34.83520000     -69.55990000
C      -42.79950000     -33.53450000     -69.39000000
C      -43.20050000     -32.89090000     -68.20200000
C      -44.14340000     -33.46590000     -67.32800000
H      -45.50490000     -35.10310000     -67.00920000
H      -42.80100000     -35.39360000     -70.37630000
H      -42.71250000     -31.90890000     -67.98270000
H      -44.50550000     -32.91590000     -66.53860000
C      -41.80390000     -32.95160000     -70.34280000
H      -41.48640000     -33.73880000     -71.00230000
H      -40.95310000     -32.59060000     -69.82760000
C      -44.61670000     -36.86760000     -68.99490000
H      -43.75750000     -37.63500000     -69.04180000
H      -45.27940000     -37.24810000     -68.22350000
S      -42.50650000     -31.60510000     -71.33070000
S      -45.28630000     -37.14040000     -70.66540000
C      -42.80730000     -32.68010000     -72.81910000
H      -42.60950000     -32.04850000     -73.71270000
H      -41.91220000     -33.38280000     -72.88230000
C      -46.42420000     -35.57940000     -70.83110000
H      -45.66820000     -34.83290000     -70.55880000
H      -47.30610000     -35.61930000     -70.11470000
C      -46.91310000     -35.33250000     -72.30830000
H      -46.12680000     -35.42750000     -73.04860000
H      -47.71120000     -36.07170000     -72.50930000
C      -44.18830000     -33.35700000     -72.88130000
H      -44.25340000     -33.92590000     -71.98640000
H      -44.07780000     -34.14840000     -73.69570000
C      -45.29940000     -32.36850000     -73.08140000
C      -45.13090000     -31.06370000     -73.33350000
C      -46.76180000     -32.74810000     -72.93320000
H      -44.19410000     -30.62240000     -73.52810000
C      -47.53740000     -31.58040000     -73.07620000
C      -47.52590000     -33.92540000     -72.52140000
C      -48.85730000     -33.54670000     -72.32810000
S      -46.67450000     -30.15560000     -73.47930000
S      -49.24760000     -31.88990000     -72.67460000
H      -49.55460000     -34.42820000     -72.05380000
