40
Properties=species:S:1:pos:R:3 #=T CELL(abcABC):=T 1.889726e+02=T 90.00000=T Traj:=T positionsangstrom=T Step:=T 0=T Bead:=T pbc="F F F"
C      -48.67170000     -31.86400000     -71.66050000
C      -47.93330000     -31.61490000     -70.46880000
C      -47.80450000     -32.71450000     -69.55770000
C      -48.43550000     -33.88730000     -69.94300000
C      -49.25960000     -34.08190000     -71.08670000
C      -49.34810000     -32.98570000     -71.92940000
H      -48.69920000     -31.06820000     -72.43720000
H      -47.18230000     -32.71470000     -68.59590000
H      -49.68680000     -35.07020000     -71.31580000
H      -49.80920000     -33.03410000     -72.92600000
C      -48.33070000     -34.99080000     -68.93270000
H      -48.77360000     -35.94930000     -69.32990000
H      -48.82070000     -34.69190000     -68.01310000
C      -47.36490000     -30.24040000     -70.14870000
H      -47.39310000     -29.59150000     -71.03580000
H      -48.00720000     -29.86610000     -69.30310000
S      -46.67840000     -35.47760000     -68.45720000
S      -45.45850000     -30.28630000     -69.69040000
C      -45.75060000     -35.90550000     -70.02810000
H      -45.01110000     -36.70060000     -69.90640000
H      -46.43140000     -36.18870000     -70.84890000
C      -44.73260000     -31.19380000     -71.05200000
H      -44.60180000     -30.51930000     -71.92460000
H      -45.47320000     -31.85760000     -71.40870000
C      -43.29610000     -31.66700000     -70.75400000
H      -42.66880000     -30.73360000     -70.58430000
H      -43.27020000     -32.31580000     -69.84480000
C      -45.00380000     -34.63760000     -70.45230000
H      -44.35680000     -34.19900000     -69.63730000
H      -45.81130000     -33.88090000     -70.54950000
C      -44.24860000     -34.77650000     -71.74100000
C      -44.43150000     -35.79630000     -72.66680000
C      -43.26620000     -33.77920000     -72.27240000
H      -45.04480000     -36.68710000     -72.57850000
C      -42.80160000     -34.10910000     -73.56720000
C      -42.75350000     -32.46360000     -71.88570000
C      -41.83480000     -32.01680000     -72.73240000
S      -43.38950000     -35.64110000     -74.15140000
S      -41.52610000     -33.07500000     -74.16280000
H      -41.29740000     -31.03020000     -72.68190000
