40
Properties=species:S:1:pos:R:3 #=T CELL(abcABC):=T 1.889726e+02=T 90.00000=T Traj:=T positionsangstrom=T Step:=T 0=T Bead:=T pbc="F F F"
C      -48.70980000     -31.71710000     -71.63570000
C      -47.93380000     -31.52260000     -70.45890000
C      -47.73780000     -32.70530000     -69.64200000
C      -48.42980000     -33.89050000     -70.04130000
C      -49.33680000     -33.95860000     -71.13900000
C      -49.39800000     -32.87250000     -71.96300000
H      -49.00750000     -30.81680000     -72.17810000
H      -47.07730000     -32.68400000     -68.76810000
H      -49.98030000     -34.83990000     -71.24830000
H      -50.06430000     -32.94890000     -72.84730000
C      -48.36180000     -35.10290000     -69.18000000
H      -48.74460000     -35.99080000     -69.67530000
H      -49.00580000     -34.98410000     -68.28990000
C      -47.23570000     -30.27070000     -70.10940000
H      -47.23530000     -29.65100000     -70.99540000
H      -47.79500000     -29.64420000     -69.35300000
S      -46.62570000     -35.53760000     -68.47020000
S      -45.57390000     -30.39610000     -69.51450000
C      -45.69410000     -35.75480000     -70.04290000
H      -44.94980000     -36.56180000     -69.87390000
H      -46.41880000     -36.05310000     -70.78710000
C      -44.73010000     -31.06080000     -71.05010000
H      -44.72510000     -30.23190000     -71.87890000
H      -45.34730000     -31.88580000     -71.42700000
C      -43.31290000     -31.54980000     -70.79540000
H      -42.59330000     -30.75590000     -70.58920000
H      -43.25520000     -32.18540000     -69.93980000
C      -44.95880000     -34.56160000     -70.49110000
H      -44.21490000     -34.28430000     -69.75500000
H      -45.61020000     -33.65280000     -70.58590000
C      -44.29070000     -34.66760000     -71.85680000
C      -44.53360000     -35.71950000     -72.76540000
C      -43.35910000     -33.71720000     -72.37020000
H      -45.09520000     -36.66540000     -72.70050000
C      -42.76310000     -34.19160000     -73.55060000
C      -42.85970000     -32.45280000     -71.95510000
C      -41.79850000     -32.13100000     -72.74040000
S      -43.41980000     -35.65250000     -74.12680000
S      -41.36490000     -33.25550000     -73.99230000
H      -41.28400000     -31.22350000     -72.59870000
