40
Properties=species:S:1:pos:R:3 #=T CELL(abcABC):=T 1.889726e+02=T 90.00000=T Traj:=T positionsangstrom=T Step:=T 0=T Bead:=T pbc="F F F"
C      -44.57310000     -33.92830000     -67.95330000
C      -43.82050000     -34.86350000     -68.75660000
C      -42.79460000     -34.41630000     -69.56960000
C      -42.59880000     -32.99430000     -69.68700000
C      -43.39090000     -32.07070000     -68.93990000
C      -44.26950000     -32.58060000     -68.01630000
H      -45.20350000     -34.38730000     -67.18790000
H      -42.26220000     -35.16540000     -70.09330000
H      -43.32080000     -30.99170000     -69.14820000
H      -44.73340000     -31.91990000     -67.29590000
C      -41.53150000     -32.62560000     -70.70190000
H      -41.17040000     -33.57520000     -71.13640000
H      -40.75800000     -32.05460000     -70.33760000
C      -44.13690000     -36.32190000     -68.76360000
H      -43.22190000     -36.89290000     -68.73110000
H      -44.78910000     -36.67820000     -67.93230000
S      -42.18120000     -31.64410000     -72.17190000
S      -44.98720000     -36.85250000     -70.37250000
C      -43.00550000     -32.87870000     -73.23000000
H      -43.03970000     -32.41780000     -74.20030000
H      -42.33690000     -33.68200000     -73.34560000
C      -46.26460000     -35.53920000     -70.58460000
H      -45.78030000     -34.55740000     -70.54990000
H      -47.06830000     -35.43750000     -69.86900000
C      -46.83310000     -35.65350000     -71.98360000
H      -45.94420000     -35.77230000     -72.58170000
H      -47.61830000     -36.43090000     -72.14020000
C      -44.32030000     -33.45650000     -72.69990000
H      -44.09000000     -33.91940000     -71.76210000
H      -44.49560000     -34.26930000     -73.35430000
C      -45.57710000     -32.58080000     -72.77100000
C      -45.47520000     -31.24830000     -73.09940000
C      -46.95460000     -33.04250000     -72.55210000
H      -44.57040000     -30.78850000     -73.42730000
C      -47.90670000     -32.04080000     -72.63550000
C      -47.50470000     -34.38050000     -72.24970000
C      -48.89660000     -34.28490000     -72.16150000
S      -47.16970000     -30.48810000     -73.16400000
S      -49.50240000     -32.61800000     -72.38140000
H      -49.65010000     -35.03620000     -71.94280000
