40
Properties=species:S:1:pos:R:3 #=T CELL(abcABC):=T 1.889726e+02=T 90.00000=T Traj:=T positionsangstrom=T Step:=T 0=T Bead:=T pbc="F F F"
C      -44.62760000     -34.06270000     -67.92740000
C      -43.89810000     -34.98800000     -68.80890000
C      -42.91400000     -34.44920000     -69.67650000
C      -42.60170000     -33.08880000     -69.65540000
C      -43.34120000     -32.16950000     -68.82750000
C      -44.32670000     -32.72660000     -67.97280000
H      -45.51910000     -34.50450000     -67.35750000
H      -42.29200000     -35.15250000     -70.27610000
H      -43.19390000     -31.07910000     -68.78820000
H      -45.00300000     -32.06760000     -67.43500000
C      -41.52940000     -32.58230000     -70.57570000
H      -40.73440000     -33.34710000     -70.83410000
H      -40.95070000     -31.83910000     -70.07920000
C      -44.23400000     -36.40990000     -68.70190000
H      -43.33250000     -37.08460000     -68.50770000
H      -45.02610000     -36.59390000     -67.98450000
S      -42.17390000     -31.74680000     -72.17640000
S      -44.93660000     -36.91620000     -70.31640000
C      -43.06690000     -33.04150000     -73.14720000
H      -43.13620000     -32.63770000     -74.15860000
H      -42.40890000     -33.97090000     -73.34060000
C      -46.19510000     -35.60560000     -70.57860000
H      -45.74010000     -34.63530000     -70.36260000
H      -46.99910000     -35.77030000     -69.83050000
C      -46.78710000     -35.50960000     -71.97280000
H      -46.12780000     -35.68990000     -72.81780000
H      -47.41790000     -36.32580000     -72.09360000
C      -44.43760000     -33.49760000     -72.65250000
H      -44.38590000     -33.96880000     -71.60650000
H      -44.70810000     -34.37880000     -73.25600000
C      -45.58760000     -32.50080000     -72.83600000
C      -45.54770000     -31.16350000     -73.14090000
C      -46.92740000     -33.01140000     -72.65370000
H      -44.67520000     -30.63870000     -73.26460000
C      -47.85700000     -31.98980000     -72.84470000
C      -47.50700000     -34.27220000     -72.25280000
C      -48.91480000     -34.10560000     -72.16280000
S      -47.04620000     -30.38450000     -73.14020000
S      -49.47490000     -32.43780000     -72.48330000
H      -49.72580000     -34.83440000     -71.81240000
