40
Properties=species:S:1:pos:R:3 #=T CELL(abcABC):=T 1.889726e+02=T 90.00000=T Traj:=T positionsangstrom=T Step:=T 0=T Bead:=T pbc="F F F"
C      -47.29640000     -34.22330000     -67.79430000
C      -46.92410000     -32.92270000     -68.23390000
C      -47.49550000     -32.43070000     -69.42220000
C      -48.46390000     -33.14600000     -70.14610000
C      -48.76290000     -34.43720000     -69.76410000
C      -48.26300000     -34.88990000     -68.48490000
H      -46.76160000     -34.60940000     -66.92260000
H      -47.38270000     -31.42160000     -69.72650000
H      -49.41890000     -35.06390000     -70.27810000
H      -48.52590000     -35.88920000     -68.21470000
C      -49.18180000     -32.53850000     -71.35070000
H      -49.59860000     -31.57990000     -71.09290000
H      -50.07740000     -33.14220000     -71.64640000
C      -45.87890000     -32.08870000     -67.59420000
H      -45.79250000     -31.19360000     -68.15160000
H      -46.22360000     -31.74170000     -66.62780000
S      -48.07080000     -32.36710000     -72.85680000
S      -44.19550000     -32.96870000     -67.46720000
C      -47.58170000     -34.18340000     -73.00350000
H      -48.39700000     -34.75470000     -72.52740000
H      -47.52640000     -34.55230000     -74.01230000
C      -43.42530000     -32.68680000     -69.09680000
H      -42.37640000     -32.84930000     -68.90970000
H      -43.50080000     -31.64810000     -69.35280000
C      -43.91520000     -33.71770000     -70.19010000
H      -43.81140000     -34.78080000     -69.76950000
H      -44.98800000     -33.55620000     -70.38900000
C      -46.21670000     -34.59080000     -72.44710000
H      -46.15660000     -35.66500000     -72.23030000
H      -46.18000000     -34.13710000     -71.40300000
C      -45.07810000     -34.19950000     -73.25660000
C      -45.02800000     -34.32790000     -74.57590000
C      -43.78750000     -33.71380000     -72.76770000
H      -45.77330000     -34.79490000     -75.29280000
C      -42.79680000     -33.56290000     -73.78480000
C      -43.14750000     -33.56530000     -71.41950000
C      -41.89840000     -32.98800000     -71.54060000
S      -43.49450000     -33.92860000     -75.32050000
S      -41.29650000     -32.90180000     -73.24560000
H      -41.19020000     -32.93450000     -70.69870000
