40
Properties=species:S:1:pos:R:3 #=T CELL(abcABC):=T 1.889726e+02=T 90.00000=T Traj:=T positionsangstrom=T Step:=T 0=T Bead:=T pbc="F F F"
C      -43.82880000     -33.72300000     -68.03520000
C      -43.13140000     -34.55420000     -68.96680000
C      -42.29410000     -34.06550000     -69.93370000
C      -42.18320000     -32.63850000     -70.21010000
C      -42.96630000     -31.85240000     -69.34810000
C      -43.77660000     -32.34480000     -68.32160000
H      -44.55340000     -34.10900000     -67.34750000
H      -41.78960000     -34.70680000     -70.70790000
H      -42.94040000     -30.74510000     -69.42210000
H      -44.20730000     -31.62730000     -67.62170000
C      -41.59530000     -32.04420000     -71.44250000
H      -41.04870000     -32.69730000     -72.14340000
H      -40.83750000     -31.24670000     -71.04120000
C      -43.17770000     -36.14300000     -68.87840000
H      -42.19610000     -36.57820000     -69.14840000
H      -43.25910000     -36.46370000     -67.81070000
S      -42.90780000     -31.14010000     -72.51300000
S      -44.38300000     -36.83270000     -70.06100000
C      -43.53490000     -32.50080000     -73.57380000
H      -43.80780000     -32.00210000     -74.52080000
H      -42.65890000     -33.21160000     -73.85890000
C      -45.74760000     -35.67660000     -70.13580000
H      -45.41660000     -34.69250000     -69.71270000
H      -46.57130000     -35.93310000     -69.42520000
C      -46.42000000     -35.66330000     -71.51920000
H      -45.70570000     -35.57490000     -72.36910000
H      -46.79540000     -36.70640000     -71.72130000
C      -44.61810000     -33.43260000     -73.02560000
H      -44.35350000     -33.79810000     -71.98790000
H      -44.73630000     -34.27400000     -73.65650000
C      -45.98880000     -32.75000000     -73.00870000
C      -46.23460000     -31.43220000     -73.33220000
C      -47.18090000     -33.32210000     -72.42240000
H      -45.54530000     -30.69660000     -73.80770000
C      -48.30730000     -32.52380000     -72.53510000
C      -47.47850000     -34.56550000     -71.69100000
C      -48.81840000     -34.60590000     -71.31240000
S      -47.93200000     -30.93990000     -73.26920000
S      -49.71480000     -33.20130000     -71.68210000
H      -49.37180000     -35.37810000     -70.76200000
