40
Properties=species:S:1:pos:R:3 #=T CELL(abcABC):=T 1.889726e+02=T 90.00000=T Traj:=T positionsangstrom=T Step:=T 0=T Bead:=T pbc="F F F"
C      -48.64050000     -31.55720000     -71.08000000
C      -48.02690000     -31.76540000     -69.80830000
C      -47.91200000     -33.04150000     -69.25680000
C      -48.27890000     -34.14950000     -70.01690000
C      -48.78380000     -33.92740000     -71.34950000
C      -48.98740000     -32.66140000     -71.88070000
H      -48.60780000     -30.56820000     -71.52310000
H      -47.37490000     -33.17900000     -68.33120000
H      -49.11690000     -34.78480000     -71.95310000
H      -49.44700000     -32.50570000     -72.87540000
C      -48.19730000     -35.52110000     -69.36150000
H      -48.76640000     -36.25930000     -69.93970000
H      -48.63650000     -35.44730000     -68.41660000
C      -47.46080000     -30.62920000     -69.02770000
H      -47.85760000     -29.65610000     -69.35680000
H      -47.64050000     -30.83420000     -67.96590000
S      -46.46970000     -36.15110000     -68.97020000
S      -45.57410000     -30.49080000     -69.03800000
C      -45.56480000     -36.19050000     -70.61310000
H      -44.95530000     -37.14040000     -70.62090000
H      -46.30460000     -36.34410000     -71.42240000
C      -45.23650000     -31.23990000     -70.71790000
H      -45.36770000     -30.48300000     -71.51550000
H      -45.79740000     -32.14630000     -70.82630000
C      -43.71090000     -31.68040000     -70.63800000
H      -43.12590000     -30.81920000     -70.32280000
H      -43.54870000     -32.51920000     -69.89000000
C      -44.82890000     -34.92240000     -70.81470000
H      -44.13600000     -34.91440000     -70.00770000
H      -45.42290000     -34.01970000     -70.76460000
C      -44.08950000     -34.77930000     -72.12960000
C      -43.89680000     -35.78930000     -72.94720000
C      -43.35110000     -33.60320000     -72.45470000
H      -44.45110000     -36.70400000     -72.88640000
C      -42.69820000     -33.76690000     -73.71450000
C      -43.22090000     -32.23130000     -71.96320000
C      -42.42480000     -31.49430000     -72.76760000
S      -43.11340000     -35.31050000     -74.39160000
S      -41.86840000     -32.36100000     -74.24200000
H      -42.12780000     -30.39340000     -72.60050000
