40
Properties=species:S:1:pos:R:3 #=T CELL(abcABC):=T 1.889726e+02=T 90.00000=T Traj:=T positionsangstrom=T Step:=T 0=T Bead:=T pbc="F F F"
C      -43.72830000     -33.70210000     -68.06420000
C      -42.98070000     -34.52610000     -68.94440000
C      -42.29390000     -33.90890000     -70.06830000
C      -42.36050000     -32.54030000     -70.31050000
C      -43.10060000     -31.72530000     -69.35680000
C      -43.77150000     -32.24600000     -68.30760000
H      -44.15050000     -34.08970000     -67.13070000
H      -41.67180000     -34.48470000     -70.71260000
H      -43.24600000     -30.70830000     -69.62130000
H      -44.20050000     -31.42050000     -67.68260000
C      -41.78740000     -31.88460000     -71.45010000
H      -41.12430000     -32.55910000     -71.94190000
H      -41.21850000     -30.98250000     -71.12250000
C      -42.88000000     -36.01870000     -68.78850000
H      -42.07480000     -36.61480000     -69.20040000
H      -43.11080000     -36.40910000     -67.79370000
S      -43.00960000     -31.07890000     -72.65450000
S      -44.29860000     -36.81760000     -69.83860000
C      -43.60770000     -32.42470000     -73.83670000
H      -44.01650000     -31.97920000     -74.69790000
H      -42.79840000     -33.10420000     -74.14580000
C      -45.59640000     -35.61090000     -70.14660000
H      -45.25860000     -34.52570000     -70.08460000
H      -46.35720000     -35.77510000     -69.38500000
C      -46.29250000     -35.73030000     -71.56910000
H      -45.59180000     -35.79940000     -72.42630000
H      -46.85260000     -36.66970000     -71.49490000
C      -44.66160000     -33.24360000     -73.10830000
H      -44.21000000     -33.33040000     -72.09270000
H      -44.66180000     -34.23840000     -73.48400000
C      -46.05660000     -32.66410000     -73.01360000
C      -46.38930000     -31.34470000     -73.32480000
C      -47.17410000     -33.35640000     -72.42540000
H      -45.75150000     -30.55320000     -73.63520000
C      -48.39740000     -32.68660000     -72.49880000
C      -47.26670000     -34.65340000     -71.76030000
C      -48.57080000     -34.86960000     -71.32630000
S      -48.10830000     -31.03650000     -73.05970000
S      -49.67600000     -33.49150000     -71.73500000
H      -48.93760000     -35.68690000     -70.72690000
