40
Properties=species:S:1:pos:R:3 #=T CELL(abcABC):=T 1.889726e+02=T 90.00000=T Traj:=T positionsangstrom=T Step:=T 0=T Bead:=T pbc="F F F"
C      -42.88150000     -36.00580000     -71.71730000
C      -44.17540000     -36.10080000     -72.28250000
C      -44.61980000     -35.26890000     -73.34710000
C      -43.86670000     -34.13640000     -73.66660000
C      -42.64490000     -33.91750000     -73.02380000
C      -42.15180000     -34.89510000     -72.12660000
H      -42.55840000     -36.64100000     -70.91010000
H      -45.54910000     -35.30210000     -73.75120000
H      -42.02040000     -33.08010000     -73.19650000
H      -41.16610000     -34.73410000     -71.64040000
C      -44.32060000     -33.06370000     -74.68360000
H      -44.86510000     -33.50840000     -75.53160000
H      -43.45790000     -32.48150000     -74.95360000
C      -45.01940000     -37.20800000     -71.71570000
H      -45.75760000     -37.49480000     -72.42900000
H      -44.48910000     -38.09300000     -71.38110000
S      -45.44780000     -31.79660000     -73.91620000
S      -46.00780000     -36.63880000     -70.22610000
C      -47.00950000     -32.58880000     -73.47330000
H      -47.61820000     -32.53910000     -74.31410000
H      -46.82030000     -33.67960000     -73.28660000
C      -47.15730000     -35.51460000     -71.09580000
H      -48.05820000     -36.02660000     -71.53170000
H      -46.63920000     -34.95580000     -71.89040000
C      -47.49400000     -34.36880000     -70.08300000
H      -48.21370000     -33.77110000     -70.63370000
H      -48.03440000     -34.83450000     -69.26900000
C      -47.69470000     -31.87390000     -72.35650000
H      -48.55000000     -32.55980000     -71.97060000
H      -48.19090000     -30.96810000     -72.67080000
C      -46.76130000     -31.41790000     -71.23060000
C      -46.16590000     -30.17350000     -71.34640000
C      -46.21940000     -32.15250000     -70.10950000
H      -46.21420000     -29.40890000     -72.11550000
C      -45.21290000     -31.51460000     -69.43900000
C      -46.41000000     -33.52950000     -69.59560000
C      -45.60960000     -33.76610000     -68.51730000
S      -44.98140000     -29.80460000     -70.06070000
S      -44.57680000     -32.36720000     -68.07950000
H      -45.51820000     -34.70420000     -67.98850000
