40
Properties=species:S:1:pos:R:3 #=T CELL(abcABC):=T 1.889726e+02=T 90.00000=T Traj:=T positionsangstrom=T Step:=T 0=T Bead:=T pbc="F F F"
C      -48.93800000     -31.87590000     -71.08890000
C      -48.07930000     -31.92840000     -69.98480000
C      -47.93400000     -33.16340000     -69.32380000
C      -48.44050000     -34.36520000     -69.87490000
C      -49.21110000     -34.30620000     -71.02920000
C      -49.47000000     -33.05960000     -71.57090000
H      -49.31010000     -30.94420000     -71.51830000
H      -47.17340000     -33.30800000     -68.56000000
H      -49.59200000     -35.18950000     -71.50770000
H      -50.09190000     -33.02480000     -72.44850000
C      -48.14480000     -35.67400000     -69.30630000
H      -48.52100000     -36.42830000     -69.97430000
H      -48.61710000     -35.85520000     -68.30610000
C      -47.40050000     -30.75920000     -69.28650000
H      -47.63140000     -29.94640000     -70.00320000
H      -47.93730000     -30.42730000     -68.43200000
S      -46.36300000     -36.13250000     -68.98710000
S      -45.59890000     -30.81280000     -69.03280000
C      -45.52030000     -36.00820000     -70.63670000
H      -45.07720000     -36.96480000     -70.85330000
H      -46.27540000     -35.78250000     -71.37960000
C      -45.03960000     -31.45210000     -70.62820000
H      -45.16360000     -30.64850000     -71.36360000
H      -45.58050000     -32.27590000     -70.93510000
C      -43.52210000     -31.79640000     -70.48780000
H      -43.03480000     -30.89060000     -70.07940000
H      -43.35910000     -32.59120000     -69.82120000
C      -44.56650000     -34.81090000     -70.70850000
H      -43.79920000     -34.86310000     -70.00620000
H      -45.17610000     -33.89480000     -70.50400000
C      -43.97610000     -34.53230000     -72.09690000
C      -44.09300000     -35.47440000     -73.09280000
C      -43.27520000     -33.36600000     -72.49560000
H      -44.59530000     -36.39400000     -73.08720000
C      -42.74630000     -33.52170000     -73.78020000
C      -42.88010000     -32.10150000     -71.88140000
C      -42.29920000     -31.23980000     -72.76450000
S      -43.18370000     -35.04430000     -74.54540000
S      -41.78740000     -32.11400000     -74.26420000
H      -41.99850000     -30.18170000     -72.47600000
