40
Properties=species:S:1:pos:R:3 #=T CELL(abcABC):=T 1.889726e+02=T 90.00000=T Traj:=T positionsangstrom=T Step:=T 0=T Bead:=T pbc="F F F"
C      -44.05220000     -33.31660000     -68.29310000
C      -43.09960000     -34.07360000     -69.07940000
C      -42.37740000     -33.34230000     -70.09430000
C      -42.52080000     -31.92720000     -70.18440000
C      -43.42780000     -31.24300000     -69.36000000
C      -44.18700000     -31.96620000     -68.41560000
H      -44.63310000     -33.89820000     -67.50200000
H      -41.66990000     -33.98990000     -70.67490000
H      -43.39570000     -30.19510000     -69.40400000
H      -44.71520000     -31.58670000     -67.55530000
C      -41.88290000     -31.36110000     -71.35630000
H      -41.17770000     -31.98450000     -71.84300000
H      -41.39340000     -30.38110000     -71.19930000
C      -42.79210000     -35.50740000     -68.73700000
H      -41.69910000     -35.66620000     -68.87900000
H      -42.92920000     -35.72650000     -67.60730000
S      -43.18680000     -30.84410000     -72.68530000
S      -43.74210000     -36.55930000     -69.97210000
C      -43.54990000     -32.35740000     -73.64140000
H      -43.88340000     -31.99250000     -74.59980000
H      -42.59380000     -32.86060000     -73.68000000
C      -45.40020000     -35.64520000     -70.26990000
H      -45.21930000     -34.59270000     -70.39440000
H      -45.96920000     -35.90250000     -69.34610000
C      -46.14850000     -36.11010000     -71.51920000
H      -45.47100000     -36.11320000     -72.40560000
H      -46.63950000     -37.11440000     -71.39260000
C      -44.56700000     -33.32810000     -72.91440000
H      -44.23610000     -33.41490000     -71.85330000
H      -44.41250000     -34.33020000     -73.32060000
C      -46.02670000     -32.87840000     -72.83070000
C      -46.48980000     -31.64950000     -73.21400000
C      -47.09630000     -33.73620000     -72.29260000
H      -45.93970000     -30.96900000     -73.79660000
C      -48.31950000     -33.11560000     -72.38290000
C      -47.22240000     -35.09920000     -71.75780000
C      -48.55710000     -35.36630000     -71.45390000
S      -48.24550000     -31.52910000     -73.17390000
S      -49.62560000     -33.97320000     -71.67710000
H      -49.01780000     -36.16270000     -70.90450000
