40
Properties=species:S:1:pos:R:3 #=T CELL(abcABC):=T 1.889726e+02=T 90.00000=T Traj:=T positionsangstrom=T Step:=T 0=T Bead:=T pbc="F F F"
C      -48.86140000     -31.74710000     -70.72350000
C      -47.94780000     -31.84290000     -69.69670000
C      -47.63490000     -33.08370000     -69.13500000
C      -48.23550000     -34.26840000     -69.53320000
C      -49.13490000     -34.19250000     -70.60730000
C      -49.45090000     -32.95830000     -71.20070000
H      -49.21390000     -30.78010000     -71.11550000
H      -46.94330000     -33.15500000     -68.30190000
H      -49.60830000     -35.14330000     -71.00120000
H      -49.99150000     -32.96890000     -72.10500000
C      -47.98950000     -35.61540000     -68.87020000
H      -48.69410000     -36.33840000     -69.34390000
H      -48.10360000     -35.59840000     -67.78400000
C      -47.31450000     -30.58500000     -69.09950000
H      -47.56370000     -29.75780000     -69.81730000
H      -47.70430000     -30.40090000     -68.08880000
S      -46.34390000     -36.31980000     -69.11020000
S      -45.45010000     -30.67680000     -68.97280000
C      -45.68940000     -36.01910000     -70.82570000
H      -44.92330000     -36.77940000     -70.95800000
H      -46.47430000     -36.28110000     -71.55890000
C      -44.92520000     -31.20690000     -70.66160000
H      -45.01590000     -30.35660000     -71.30540000
H      -45.61590000     -31.95550000     -70.97680000
C      -43.46920000     -31.78670000     -70.71770000
H      -42.81390000     -31.05850000     -70.21340000
H      -43.41190000     -32.70290000     -70.17120000
C      -45.15190000     -34.58760000     -71.05950000
H      -44.55450000     -34.17470000     -70.27560000
H      -46.01540000     -33.97970000     -71.15880000
C      -44.30680000     -34.51830000     -72.30320000
C      -44.14790000     -35.56500000     -73.22920000
C      -43.45450000     -33.37190000     -72.70760000
H      -44.57810000     -36.52500000     -73.00680000
C      -42.88150000     -33.59130000     -73.96270000
C      -43.01950000     -32.12020000     -72.11000000
C      -42.19750000     -31.40090000     -72.91780000
S      -43.26530000     -35.16910000     -74.66940000
S      -41.77080000     -32.34010000     -74.37190000
H      -41.69000000     -30.46790000     -72.75790000
