40
Properties=species:S:1:pos:R:3 #=T CELL(abcABC):=T 1.889726e+02=T 90.00000=T Traj:=T positionsangstrom=T Step:=T 0=T Bead:=T pbc="F F F"
C      -43.70550000     -33.30340000     -67.85130000
C      -43.15470000     -34.14220000     -68.89390000
C      -42.62410000     -33.46550000     -70.00360000
C      -42.64020000     -32.04900000     -70.16760000
C      -43.24860000     -31.26840000     -69.20450000
C      -43.84660000     -31.88040000     -68.08840000
H      -44.18260000     -33.72060000     -67.04880000
H      -42.22610000     -34.14320000     -70.79900000
H      -43.47610000     -30.20260000     -69.24210000
H      -44.30860000     -31.24920000     -67.29420000
C      -42.08990000     -31.44500000     -71.48340000
H      -41.31300000     -32.13110000     -71.82360000
H      -41.66910000     -30.49690000     -71.23350000
C      -43.03500000     -35.61390000     -68.67360000
H      -41.95770000     -35.87480000     -68.63880000
H      -43.55750000     -35.86010000     -67.73710000
S      -43.26370000     -30.91830000     -72.83720000
S      -43.84880000     -36.54460000     -70.10660000
C      -43.72840000     -32.47210000     -73.87780000
H      -44.31750000     -32.02020000     -74.66480000
H      -42.78420000     -32.95270000     -74.24550000
C      -45.68580000     -36.03830000     -70.32280000
H      -45.79990000     -34.96840000     -70.05240000
H      -46.33940000     -36.62920000     -69.64830000
C      -46.13250000     -36.10860000     -71.75280000
H      -45.32970000     -36.01060000     -72.50790000
H      -46.61790000     -37.06460000     -72.00240000
C      -44.53690000     -33.48350000     -73.12650000
H      -44.17690000     -33.70960000     -72.11450000
H      -44.54940000     -34.32610000     -73.84810000
C      -45.93780000     -32.93700000     -72.92670000
C      -46.29150000     -31.62980000     -73.21200000
C      -47.05510000     -33.70970000     -72.38060000
H      -45.73320000     -30.78050000     -73.38170000
C      -48.26080000     -32.95970000     -72.36130000
C      -47.27590000     -35.06420000     -71.92450000
C      -48.55860000     -35.24050000     -71.45430000
S      -48.01120000     -31.31390000     -72.93670000
S      -49.56930000     -33.78850000     -71.63110000
H      -48.97310000     -36.18400000     -71.06180000
