40
Properties=species:S:1:pos:R:3 #=T CELL(abcABC):=T 1.889726e+02=T 90.00000=T Traj:=T positionsangstrom=T Step:=T 0=T Bead:=T pbc="F F F"
C      -43.79300000     -33.36520000     -68.10370000
C      -42.88790000     -34.07750000     -68.96620000
C      -42.23540000     -33.31050000     -69.95280000
C      -42.59870000     -31.98830000     -70.24390000
C      -43.65120000     -31.37070000     -69.47540000
C      -44.14610000     -32.06360000     -68.38370000
H      -44.21970000     -34.02270000     -67.24790000
H      -41.37390000     -33.83690000     -70.44520000
H      -44.10350000     -30.49840000     -69.90090000
H      -44.83310000     -31.65380000     -67.65760000
C      -41.97740000     -31.25390000     -71.42370000
H      -41.19690000     -31.91590000     -71.83470000
H      -41.46790000     -30.43250000     -70.99230000
C      -42.63520000     -35.55440000     -68.81760000
H      -41.63300000     -35.84980000     -68.86790000
H      -42.96120000     -35.82320000     -67.80010000
S      -43.12730000     -30.71550000     -72.75300000
S      -43.69880000     -36.45960000     -70.06720000
C      -43.66740000     -32.37980000     -73.47900000
H      -44.13640000     -32.06680000     -74.48860000
H      -42.73610000     -32.93300000     -73.67950000
C      -45.32310000     -35.62290000     -70.03570000
H      -45.32490000     -34.53270000     -69.90820000
H      -45.90250000     -35.97770000     -69.14960000
C      -46.13980000     -35.92720000     -71.33270000
H      -45.42810000     -35.83570000     -72.17730000
H      -46.37430000     -36.97070000     -71.44400000
C      -44.60450000     -33.23150000     -72.65230000
H      -44.36510000     -33.03590000     -71.64970000
H      -44.53260000     -34.34910000     -72.90980000
C      -46.07670000     -32.91250000     -72.79970000
C      -46.53410000     -31.79860000     -73.40290000
C      -47.18360000     -33.72160000     -72.24070000
H      -45.89830000     -30.97730000     -73.73880000
C      -48.39460000     -33.13380000     -72.48470000
C      -47.28200000     -35.02670000     -71.56470000
C      -48.57230000     -35.35140000     -71.29030000
S      -48.26110000     -31.56860000     -73.25680000
S      -49.70090000     -34.13250000     -71.90790000
H      -49.05260000     -36.31380000     -70.97550000
