40
Properties=species:S:1:pos:R:3 #=T CELL(abcABC):=T 1.889726e+02=T 90.00000=T Traj:=T positionsangstrom=T Step:=T 0=T Bead:=T pbc="F F F"
C      -48.60300000     -31.64050000     -71.19410000
C      -47.99220000     -31.81820000     -69.90160000
C      -47.73920000     -33.06560000     -69.33620000
C      -48.33020000     -34.15350000     -69.92990000
C      -48.91020000     -33.99060000     -71.16460000
C      -48.99640000     -32.79940000     -71.89210000
H      -48.85770000     -30.64310000     -71.57470000
H      -47.28990000     -33.11960000     -68.34700000
H      -49.40420000     -34.87730000     -71.59890000
H      -49.37760000     -32.74350000     -72.89270000
C      -48.27090000     -35.55690000     -69.34970000
H      -48.78620000     -36.20920000     -70.13640000
H      -48.85130000     -35.60850000     -68.42930000
C      -47.52540000     -30.53210000     -69.22730000
H      -47.72020000     -29.66880000     -69.84680000
H      -48.04740000     -30.20210000     -68.33510000
S      -46.61350000     -36.30480000     -68.98940000
S      -45.61490000     -30.62050000     -68.88790000
C      -45.62370000     -36.17450000     -70.62640000
H      -44.81460000     -36.93370000     -70.61190000
H      -46.26960000     -36.39730000     -71.41360000
C      -45.05430000     -31.17850000     -70.51720000
H      -45.14490000     -30.41220000     -71.26570000
H      -45.80930000     -31.90070000     -70.86660000
C      -43.54490000     -31.69110000     -70.53380000
H      -42.84030000     -30.89390000     -70.27020000
H      -43.36640000     -32.41940000     -69.75660000
C      -44.82000000     -34.90010000     -70.83250000
H      -44.09750000     -34.76060000     -70.03410000
H      -45.48260000     -34.03900000     -70.61580000
C      -44.01900000     -34.76880000     -72.13090000
C      -43.75080000     -35.78170000     -72.96970000
C      -43.46820000     -33.51920000     -72.55720000
H      -44.16360000     -36.77030000     -72.75700000
C      -42.81570000     -33.63160000     -73.78450000
C      -43.21640000     -32.21910000     -71.93950000
C      -42.52060000     -31.43230000     -72.82870000
S      -42.77950000     -35.24300000     -74.33970000
S      -42.06790000     -32.20290000     -74.35300000
H      -42.06600000     -30.43070000     -72.67260000
