40
Properties=species:S:1:pos:R:3 #=T CELL(abcABC):=T 1.889726e+02=T 90.00000=T Traj:=T positionsangstrom=T Step:=T 0=T Bead:=T pbc="F F F"
C      -43.92760000     -33.17310000     -68.11120000
C      -43.28750000     -34.03590000     -68.97910000
C      -42.58990000     -33.42890000     -70.09700000
C      -42.60610000     -32.02870000     -70.23970000
C      -43.33710000     -31.22670000     -69.42460000
C      -43.85180000     -31.78090000     -68.28830000
H      -44.34360000     -33.56800000     -67.18310000
H      -41.98200000     -34.07830000     -70.71160000
H      -43.42450000     -30.17350000     -69.64070000
H      -44.59310000     -31.34260000     -67.64940000
C      -41.92630000     -31.28940000     -71.34220000
H      -41.14810000     -31.92330000     -71.82110000
H      -41.50490000     -30.34480000     -70.92750000
C      -43.15660000     -35.64510000     -68.82650000
H      -42.11340000     -35.95750000     -69.01450000
H      -43.47080000     -36.07370000     -67.91510000
S      -43.29620000     -30.79560000     -72.69790000
S      -43.90180000     -36.64210000     -70.11690000
C      -43.41380000     -32.44990000     -73.43140000
H      -43.47710000     -32.47330000     -74.49250000
H      -42.41610000     -32.98680000     -73.38320000
C      -45.49380000     -35.82900000     -70.24390000
H      -45.40360000     -34.75810000     -69.94740000
H      -46.14470000     -36.20790000     -69.46380000
C      -46.07150000     -36.00070000     -71.64120000
H      -45.27710000     -36.03620000     -72.28600000
H      -46.57870000     -36.98120000     -71.68650000
C      -44.54840000     -33.40720000     -72.96230000
H      -44.30750000     -33.71190000     -71.89020000
H      -44.41030000     -34.35720000     -73.44810000
C      -45.99390000     -32.98930000     -73.05110000
C      -46.36260000     -31.67710000     -73.33580000
C      -47.08170000     -33.75590000     -72.45520000
H      -45.90110000     -31.00590000     -73.96080000
C      -48.25920000     -33.04900000     -72.34450000
C      -47.18880000     -35.04960000     -71.87210000
C      -48.44800000     -35.30340000     -71.36430000
S      -48.08740000     -31.38620000     -72.93780000
S      -49.56890000     -34.00440000     -71.67430000
H      -48.82710000     -36.21410000     -70.98050000
