40
Properties=species:S:1:pos:R:3 #=T CELL(abcABC):=T 1.889726e+02=T 90.00000=T Traj:=T positionsangstrom=T Step:=T 0=T Bead:=T pbc="F F F"
C      -47.96970000     -31.24710000     -71.25320000
C      -47.61730000     -31.40200000     -69.93160000
C      -47.89490000     -32.61450000     -69.25390000
C      -48.50650000     -33.65310000     -69.86430000
C      -48.86540000     -33.47730000     -71.22020000
C      -48.65760000     -32.28390000     -71.92940000
H      -47.85700000     -30.20510000     -71.62420000
H      -47.65320000     -32.77420000     -68.19690000
H      -49.51710000     -34.22720000     -71.73070000
H      -48.86410000     -32.25800000     -72.96980000
C      -48.52730000     -34.98410000     -69.18350000
H      -49.27110000     -35.67770000     -69.68540000
H      -48.92020000     -34.87910000     -68.21860000
C      -46.84800000     -30.33850000     -69.25620000
H      -46.88280000     -29.37370000     -69.82910000
H      -47.24920000     -30.02150000     -68.30550000
S      -46.73740000     -35.65360000     -68.79370000
S      -45.09060000     -30.78960000     -68.96410000
C      -45.99450000     -35.73150000     -70.41780000
H      -45.95770000     -36.79990000     -70.77630000
H      -46.62140000     -35.11620000     -71.14170000
C      -44.60350000     -31.25040000     -70.72590000
H      -44.57800000     -30.39520000     -71.42370000
H      -45.29170000     -32.12470000     -70.94360000
C      -43.19600000     -31.79850000     -70.75820000
H      -42.50600000     -30.91340000     -70.66260000
H      -42.91560000     -32.50920000     -69.94770000
C      -44.50980000     -35.25160000     -70.38850000
H      -43.77500000     -35.84680000     -69.76220000
H      -44.50580000     -34.24110000     -69.93610000
C      -44.02490000     -35.03390000     -71.80210000
C      -44.17640000     -36.09700000     -72.68080000
C      -43.35870000     -33.88900000     -72.42460000
H      -44.82100000     -36.93140000     -72.44410000
C      -43.09800000     -34.15470000     -73.78970000
C      -42.98480000     -32.43580000     -72.12310000
C      -42.57060000     -31.78190000     -73.24520000
S      -43.56830000     -35.72760000     -74.28240000
S      -42.44250000     -32.82920000     -74.71980000
H      -42.34170000     -30.76020000     -73.36370000
