40
Properties=species:S:1:pos:R:3 #=T CELL(abcABC):=T 1.889726e+02=T 90.00000=T Traj:=T positionsangstrom=T Step:=T 0=T Bead:=T pbc="F F F"
C      -48.42710000     -31.58920000     -71.14790000
C      -47.74050000     -31.63700000     -69.93700000
C      -47.61310000     -32.83290000     -69.29550000
C      -48.14660000     -33.99780000     -69.77280000
C      -48.88420000     -33.98400000     -70.94060000
C      -49.00810000     -32.80340000     -71.70520000
H      -48.50910000     -30.63250000     -71.63660000
H      -47.13500000     -32.82210000     -68.34410000
H      -49.37280000     -34.83960000     -71.31950000
H      -49.76940000     -32.77320000     -72.55960000
C      -48.13650000     -35.25770000     -68.93400000
H      -48.70800000     -35.92520000     -69.57440000
H      -48.46140000     -35.18200000     -67.91660000
C      -47.15480000     -30.36400000     -69.44760000
H      -47.12220000     -29.62090000     -70.22190000
H      -47.55590000     -29.97970000     -68.56950000
S      -46.41550000     -36.03230000     -68.63260000
S      -45.32900000     -30.50740000     -68.99700000
C      -45.66050000     -36.09470000     -70.29820000
H      -44.86380000     -36.87560000     -70.31050000
H      -46.40290000     -36.45850000     -70.96760000
C      -44.84220000     -31.02520000     -70.74710000
H      -44.73360000     -30.09440000     -71.39350000
H      -45.65990000     -31.64580000     -71.05090000
C      -43.47370000     -31.77630000     -70.83690000
H      -42.64200000     -31.23880000     -70.44420000
H      -43.52430000     -32.60200000     -70.04390000
C      -45.00800000     -34.77220000     -70.71520000
H      -44.16390000     -34.54420000     -70.08990000
H      -45.73040000     -33.92230000     -70.59150000
C      -44.44230000     -34.77330000     -72.12080000
C      -44.47550000     -35.76030000     -73.11140000
C      -43.57080000     -33.67560000     -72.57290000
H      -44.99440000     -36.77870000     -72.99940000
C      -42.99210000     -33.92580000     -73.87480000
C      -43.19020000     -32.37870000     -72.13130000
C      -42.34050000     -31.73520000     -72.97230000
S      -43.44430000     -35.43070000     -74.53280000
S      -41.96180000     -32.61750000     -74.47960000
H      -41.78620000     -30.80390000     -72.94770000
