40
Properties=species:S:1:pos:R:3 #=T CELL(abcABC):=T 1.889726e+02=T 90.00000=T Traj:=T positionsangstrom=T Step:=T 0=T Bead:=T pbc="F F F"
C      -48.08540000     -31.38550000     -71.23050000
C      -47.66490000     -31.49290000     -69.91580000
C      -47.85810000     -32.69170000     -69.25130000
C      -48.34880000     -33.82120000     -69.94030000
C      -48.89190000     -33.65660000     -71.21110000
C      -48.73690000     -32.43640000     -71.87330000
H      -47.78330000     -30.48330000     -71.72730000
H      -47.63290000     -32.79560000     -68.18470000
H      -49.32540000     -34.50540000     -71.71260000
H      -49.13230000     -32.15830000     -72.85880000
C      -48.38610000     -35.14330000     -69.25730000
H      -48.67040000     -35.90730000     -69.89270000
H      -48.98040000     -35.03500000     -68.25030000
C      -46.95500000     -30.35650000     -69.19550000
H      -47.20070000     -29.39640000     -69.72700000
H      -47.16170000     -30.39330000     -68.08180000
S      -46.62050000     -35.70470000     -68.74750000
S      -45.18140000     -30.63200000     -69.03950000
C      -45.86900000     -36.03510000     -70.38540000
H      -45.58470000     -37.15290000     -70.35220000
H      -46.58000000     -35.92660000     -71.26890000
C      -44.71390000     -31.41750000     -70.64650000
H      -44.94280000     -30.63530000     -71.36800000
H      -45.35060000     -32.26070000     -70.91380000
C      -43.26110000     -31.90050000     -70.67030000
H      -42.54500000     -31.00130000     -70.63910000
H      -43.10800000     -32.50210000     -69.72560000
C      -44.56830000     -35.18660000     -70.50490000
H      -43.82440000     -35.77550000     -69.91420000
H      -44.74380000     -34.23550000     -69.99020000
C      -44.09530000     -34.93240000     -71.95220000
C      -44.27270000     -35.94160000     -72.86230000
C      -43.47800000     -33.74840000     -72.53650000
H      -44.56330000     -36.94760000     -72.65040000
C      -43.11710000     -33.97460000     -73.85940000
C      -43.00910000     -32.45420000     -72.07560000
C      -42.34010000     -31.75340000     -73.00450000
S      -43.65000000     -35.55220000     -74.37060000
S      -42.31230000     -32.68270000     -74.58440000
H      -41.81950000     -30.80030000     -72.78640000
