40
Properties=species:S:1:pos:R:3 #=T CELL(abcABC):=T 1.889726e+02=T 90.00000=T Traj:=T positionsangstrom=T Step:=T 0=T Bead:=T pbc="F F F"
C      -48.75800000     -31.73820000     -70.68940000
C      -47.94110000     -31.87920000     -69.58200000
C      -47.68670000     -33.10480000     -68.99490000
C      -48.18380000     -34.32040000     -69.55750000
C      -49.03850000     -34.18580000     -70.66920000
C      -49.37480000     -32.91620000     -71.14530000
H      -48.80510000     -30.80180000     -71.25260000
H      -47.03390000     -33.21570000     -68.11280000
H      -49.47610000     -35.05080000     -71.12510000
H      -50.22910000     -32.80690000     -71.91560000
C      -48.02230000     -35.67570000     -68.91400000
H      -48.75220000     -36.34010000     -69.19320000
H      -48.20740000     -35.48780000     -67.83570000
C      -47.26140000     -30.64980000     -69.04720000
H      -47.65350000     -29.74750000     -69.47570000
H      -47.43230000     -30.67960000     -67.96380000
S      -46.20870000     -36.23800000     -68.99890000
S      -45.44030000     -30.66660000     -69.07360000
C      -45.85710000     -36.01540000     -70.81580000
H      -45.18670000     -36.86170000     -70.93270000
H      -46.74380000     -36.14730000     -71.44830000
C      -44.98330000     -30.88580000     -70.89230000
H      -45.04930000     -29.92290000     -71.44170000
H      -45.82210000     -31.48670000     -71.32660000
C      -43.58200000     -31.39860000     -70.85310000
H      -42.86580000     -30.56810000     -70.64810000
H      -43.55830000     -32.04040000     -69.98720000
C      -45.21620000     -34.61670000     -71.11410000
H      -44.52360000     -34.48360000     -70.23690000
H      -45.95280000     -33.79010000     -70.98860000
C      -44.37360000     -34.52420000     -72.35550000
C      -44.45660000     -35.50040000     -73.35820000
C      -43.49410000     -33.45050000     -72.68750000
H      -44.96910000     -36.47100000     -73.20320000
C      -42.83430000     -33.69430000     -73.90610000
C      -43.06870000     -32.15220000     -72.15310000
C      -42.13980000     -31.53090000     -72.91990000
S      -43.22900000     -35.27440000     -74.62190000
S      -41.74640000     -32.47280000     -74.32350000
H      -41.72210000     -30.52430000     -72.73230000
