40
Properties=species:S:1:pos:R:3 #=T CELL(abcABC):=T 1.889726e+02=T 90.00000=T Traj:=T positionsangstrom=T Step:=T 0=T Bead:=T pbc="F F F"
C      -48.25810000     -31.23530000     -71.16900000
C      -47.63240000     -31.42820000     -69.89300000
C      -47.72760000     -32.64600000     -69.30190000
C      -48.24450000     -33.76780000     -69.97580000
C      -48.58360000     -33.62220000     -71.30120000
C      -48.65350000     -32.34650000     -71.91520000
H      -48.32160000     -30.24270000     -71.56510000
H      -47.16210000     -32.76170000     -68.36710000
H      -48.81760000     -34.52650000     -71.78980000
H      -48.95870000     -32.29130000     -72.99020000
C      -48.33690000     -35.07790000     -69.25770000
H      -48.83990000     -35.79260000     -69.94130000
H      -49.06060000     -35.02370000     -68.40360000
C      -46.96550000     -30.26120000     -69.22920000
H      -47.05300000     -29.33990000     -69.83760000
H      -47.38270000     -30.03430000     -68.23740000
S      -46.73210000     -35.69560000     -68.69660000
S      -45.18140000     -30.75530000     -68.92070000
C      -45.88120000     -35.51010000     -70.42220000
H      -45.95530000     -36.50190000     -70.81000000
H      -46.44380000     -34.88110000     -71.04760000
C      -44.79650000     -31.32160000     -70.64060000
H      -44.96820000     -30.50750000     -71.41470000
H      -45.47020000     -32.13090000     -70.85720000
C      -43.38200000     -31.88860000     -70.71860000
H      -42.66560000     -31.14500000     -70.44160000
H      -43.22430000     -32.60310000     -69.90340000
C      -44.41940000     -35.02820000     -70.47280000
H      -43.75380000     -35.54480000     -69.77520000
H      -44.34970000     -34.02160000     -70.15360000
C      -43.99630000     -35.03190000     -71.91330000
C      -44.14450000     -36.10040000     -72.74850000
C      -43.52520000     -33.84720000     -72.52140000
H      -44.60720000     -36.98330000     -72.45490000
C      -43.17710000     -34.08610000     -73.86360000
C      -43.03900000     -32.52020000     -72.08170000
C      -42.39380000     -31.91260000     -73.09370000
S      -43.69630000     -35.67780000     -74.41970000
S      -42.33980000     -32.78500000     -74.61710000
H      -41.91310000     -30.99770000     -73.10720000
