40
Properties=species:S:1:pos:R:3 #=T CELL(abcABC):=T 1.889726e+02=T 90.00000=T Traj:=T positionsangstrom=T Step:=T 0=T Bead:=T pbc="F F F"
C      -48.09780000     -31.03260000     -70.92600000
C      -47.42920000     -31.43380000     -69.75050000
C      -47.74430000     -32.66970000     -69.20720000
C      -48.55130000     -33.59660000     -69.87780000
C      -49.14980000     -33.20100000     -71.06180000
C      -48.88670000     -31.95370000     -71.64200000
H      -47.72670000     -30.08530000     -71.29870000
H      -47.32130000     -32.90270000     -68.17050000
H      -49.72260000     -33.90390000     -71.70190000
H      -49.45380000     -31.72210000     -72.50170000
C      -48.59570000     -34.96460000     -69.24300000
H      -48.95440000     -35.72780000     -69.88880000
H      -49.21960000     -35.11250000     -68.33040000
C      -46.56240000     -30.60410000     -68.86640000
H      -46.99000000     -29.63750000     -68.73340000
H      -46.52030000     -31.05460000     -67.83800000
S      -46.91840000     -35.58040000     -68.67800000
S      -44.84800000     -30.10180000     -69.50470000
C      -45.89640000     -36.03120000     -70.20020000
H      -45.06360000     -36.54760000     -69.83350000
H      -46.37810000     -36.75930000     -70.86040000
C      -44.62560000     -31.38700000     -70.80630000
H      -44.69170000     -30.81800000     -71.71230000
H      -45.37440000     -32.16390000     -70.67740000
C      -43.21010000     -32.04860000     -70.75130000
H      -42.49680000     -31.25420000     -70.64090000
H      -43.19690000     -32.80880000     -69.97740000
C      -45.47190000     -34.71600000     -70.88820000
H      -44.88190000     -34.14970000     -70.15260000
H      -46.33830000     -34.08450000     -71.18040000
C      -44.55370000     -34.91160000     -72.10490000
C      -44.71330000     -35.97670000     -72.94940000
C      -43.51530000     -34.00460000     -72.57460000
H      -45.54370000     -36.66950000     -72.94050000
C      -42.98910000     -34.32910000     -73.81900000
C      -42.94280000     -32.72090000     -72.13140000
C      -41.96910000     -32.21780000     -72.99600000
S      -43.67640000     -35.86860000     -74.38950000
S      -41.77940000     -33.25720000     -74.40520000
H      -41.39020000     -31.29290000     -72.99480000
