40
Properties=species:S:1:pos:R:3 #=T CELL(abcABC):=T 1.889726e+02=T 90.00000=T Traj:=T positionsangstrom=T Step:=T 0=T Bead:=T pbc="F F F"
C      -43.73290000     -33.41890000     -74.06530000
C      -44.98580000     -32.86950000     -74.45650000
C      -45.16350000     -31.52020000     -74.01120000
C      -44.22230000     -30.81260000     -73.25160000
C      -43.00360000     -31.43660000     -72.97310000
C      -42.72460000     -32.66880000     -73.47360000
H      -43.41810000     -34.45320000     -74.28590000
H      -46.07280000     -30.91970000     -74.17770000
H      -42.40150000     -30.90030000     -72.23880000
H      -41.71390000     -33.00730000     -73.31390000
C      -44.66830000     -29.46210000     -72.70540000
H      -45.29010000     -29.01430000     -73.51410000
H      -43.77560000     -28.93940000     -72.35810000
C      -46.13320000     -33.66400000     -75.06100000
H      -47.02910000     -33.04820000     -75.23810000
H      -45.84030000     -33.91950000     -76.06690000
S      -45.77780000     -29.60790000     -71.24860000
S      -46.51800000     -35.24510000     -74.24090000
C      -45.23600000     -31.14980000     -70.49080000
H      -45.20020000     -31.95970000     -71.26020000
H      -44.24780000     -31.01040000     -70.04720000
C      -47.61910000     -34.57010000     -72.87440000
H      -48.33120000     -35.30870000     -72.49530000
H      -48.22350000     -33.81540000     -73.33380000
C      -46.70090000     -33.94570000     -71.77680000
H      -45.78200000     -33.57720000     -72.25670000
H      -47.13640000     -33.06230000     -71.25130000
C      -46.10940000     -31.79880000     -69.42970000
H      -47.16360000     -31.90540000     -69.83410000
H      -46.15360000     -31.22860000     -68.53590000
C      -45.63370000     -33.10110000     -68.83260000
C      -45.05990000     -33.12510000     -67.57620000
C      -45.69130000     -34.41530000     -69.43860000
H      -44.96160000     -32.23080000     -66.91320000
C      -45.07540000     -35.35120000     -68.61570000
C      -46.11740000     -34.85140000     -70.75670000
C      -45.72950000     -36.15270000     -70.91330000
S      -44.49340000     -34.73250000     -67.06410000
S      -45.06060000     -36.89150000     -69.41390000
H      -45.92800000     -36.83360000     -71.72890000
