40
Properties=species:S:1:pos:R:3 #=T CELL(abcABC):=T 1.889726e+02=T 90.00000=T Traj:=T positionsangstrom=T Step:=T 0=T Bead:=T pbc="F F F"
C      -43.46800000     -33.46310000     -74.49200000
C      -44.85960000     -33.20100000     -74.46920000
C      -45.36030000     -31.96580000     -73.92580000
C      -44.41850000     -31.03380000     -73.40750000
C      -43.06290000     -31.31050000     -73.56560000
C      -42.57300000     -32.45370000     -74.15690000
H      -43.12580000     -34.34780000     -75.08410000
H      -46.46850000     -31.76910000     -73.84460000
H      -42.36630000     -30.46490000     -73.21670000
H      -41.52680000     -32.66540000     -74.13800000
C      -44.83060000     -29.73550000     -72.75080000
H      -45.10140000     -28.98140000     -73.53020000
H      -43.92860000     -29.41710000     -72.22630000
C      -45.81310000     -34.20710000     -75.10590000
H      -46.67250000     -33.82850000     -75.62260000
H      -45.30030000     -34.90160000     -75.85560000
S      -46.18730000     -29.84010000     -71.47450000
S      -46.29150000     -35.51620000     -73.84250000
C      -45.15030000     -30.91260000     -70.32950000
H      -44.65230000     -31.65820000     -71.00310000
H      -44.41590000     -30.29690000     -69.76840000
C      -47.65600000     -34.85740000     -72.74510000
H      -48.15390000     -35.75880000     -72.38070000
H      -48.35800000     -34.23120000     -73.38210000
C      -47.14900000     -33.95650000     -71.57860000
H      -46.44720000     -33.14860000     -71.93210000
H      -47.96000000     -33.44290000     -70.98070000
C      -46.16140000     -31.57200000     -69.27930000
H      -47.21120000     -31.71810000     -69.71420000
H      -46.23210000     -30.73430000     -68.60120000
C      -45.61060000     -32.82210000     -68.72570000
C      -44.85670000     -32.76870000     -67.59580000
C      -45.76010000     -34.16590000     -69.33200000
H      -44.69800000     -31.87230000     -67.03370000
C      -45.00530000     -35.07640000     -68.57790000
C      -46.34080000     -34.73970000     -70.55720000
C      -45.84880000     -36.01370000     -70.66340000
S      -44.23210000     -34.41190000     -67.16780000
S      -45.01990000     -36.70570000     -69.24390000
H      -46.04290000     -36.69150000     -71.51280000
