40
Properties=species:S:1:pos:R:3 #=T CELL(abcABC):=T 1.889726e+02=T 90.00000=T Traj:=T positionsangstrom=T Step:=T 0=T Bead:=T pbc="F F F"
C      -43.72010000     -33.47610000     -74.21800000
C      -44.99550000     -32.95080000     -74.45410000
C      -45.20600000     -31.67290000     -73.98400000
C      -44.26770000     -30.90200000     -73.32310000
C      -42.92890000     -31.39020000     -73.27070000
C      -42.64930000     -32.69980000     -73.65760000
H      -43.45040000     -34.46500000     -74.58690000
H      -46.22750000     -31.40400000     -74.00710000
H      -42.11080000     -30.73360000     -72.99800000
H      -41.63800000     -33.06500000     -73.39490000
C      -44.64620000     -29.54680000     -72.76830000
H      -45.01910000     -28.97520000     -73.63400000
H      -43.66380000     -29.11300000     -72.40110000
C      -46.23000000     -33.68300000     -74.97470000
H      -47.09650000     -33.03930000     -74.82210000
H      -46.22710000     -33.89820000     -76.04510000
S      -45.85370000     -29.78260000     -71.42730000
S      -46.54530000     -35.36770000     -74.17890000
C      -45.06090000     -30.97030000     -70.24190000
H      -44.45830000     -31.65400000     -70.75810000
H      -44.39000000     -30.32270000     -69.71310000
C      -47.59910000     -34.86350000     -72.72540000
H      -47.90040000     -35.76150000     -72.28780000
H      -48.43590000     -34.41020000     -73.18790000
C      -46.95700000     -33.97580000     -71.68800000
H      -46.46590000     -33.14390000     -72.21180000
H      -47.78700000     -33.56840000     -71.09540000
C      -46.09580000     -31.69980000     -69.44910000
H      -46.90180000     -32.00850000     -70.13190000
H      -46.63610000     -31.05010000     -68.62660000
C      -45.58010000     -32.96360000     -68.78610000
C      -44.95280000     -32.96780000     -67.58140000
C      -45.71820000     -34.31060000     -69.40280000
H      -44.93410000     -32.13280000     -66.87170000
C      -45.18920000     -35.29390000     -68.56430000
C      -46.17670000     -34.82260000     -70.68020000
C      -45.89960000     -36.15260000     -70.78030000
S      -44.34970000     -34.56770000     -67.08910000
S      -44.97490000     -36.73650000     -69.34260000
H      -46.16700000     -36.76930000     -71.65480000
