40
Properties=species:S:1:pos:R:3 #=T CELL(abcABC):=T 1.889726e+02=T 90.00000=T Traj:=T positionsangstrom=T Step:=T 0=T Bead:=T pbc="F F F"
C      -43.67450000     -33.40520000     -74.16390000
C      -44.99110000     -32.92140000     -74.38510000
C      -45.26530000     -31.63720000     -73.87280000
C      -44.29770000     -30.88790000     -73.13270000
C      -43.00950000     -31.39720000     -73.01710000
C      -42.73340000     -32.65200000     -73.51930000
H      -43.25110000     -34.30560000     -74.48580000
H      -46.28820000     -31.19420000     -73.98940000
H      -42.24920000     -30.81780000     -72.56030000
H      -41.75420000     -33.12350000     -73.29480000
C      -44.58330000     -29.54370000     -72.55020000
H      -44.87890000     -28.83880000     -73.23800000
H      -43.51650000     -29.18150000     -72.15010000
C      -46.01780000     -33.60640000     -75.20500000
H      -46.98760000     -33.10120000     -75.38980000
H      -45.51010000     -33.92190000     -76.08650000
S      -45.80300000     -29.64470000     -71.18690000
S      -46.39240000     -35.25200000     -74.27000000
C      -44.96910000     -31.01860000     -70.09980000
H      -44.47360000     -31.72280000     -70.73750000
H      -44.18380000     -30.65520000     -69.46610000
C      -47.57150000     -34.71280000     -72.97460000
H      -47.99460000     -35.69700000     -72.58680000
H      -48.37240000     -34.23190000     -73.51120000
C      -46.98070000     -33.92430000     -71.75420000
H      -46.36030000     -33.09530000     -72.06820000
H      -47.85510000     -33.53620000     -71.17500000
C      -46.08360000     -31.70720000     -69.27960000
H      -47.04970000     -31.77400000     -69.92760000
H      -46.28290000     -31.05830000     -68.38370000
C      -45.64280000     -33.06820000     -68.78860000
C      -45.16570000     -33.22110000     -67.48700000
C      -45.70790000     -34.33570000     -69.47140000
H      -45.08930000     -32.44060000     -66.76150000
C      -45.09530000     -35.29990000     -68.69530000
C      -46.13290000     -34.75700000     -70.79110000
C      -45.77730000     -36.03340000     -71.03510000
S      -44.60500000     -34.82390000     -67.11060000
S      -45.03160000     -36.81630000     -69.61880000
H      -46.03340000     -36.73180000     -71.79110000
