40
Properties=species:S:1:pos:R:3 #=T CELL(abcABC):=T 1.889726e+02=T 90.00000=T Traj:=T positionsangstrom=T Step:=T 0=T Bead:=T pbc="F F F"
C      -43.59290000     -33.24110000     -74.40250000
C      -44.91620000     -32.82980000     -74.55020000
C      -45.28150000     -31.60760000     -73.89360000
C      -44.30450000     -30.93950000     -73.09820000
C      -43.05380000     -31.46920000     -72.91970000
C      -42.71490000     -32.59830000     -73.60830000
H      -43.22140000     -34.07380000     -75.01900000
H      -46.27580000     -31.18100000     -74.06510000
H      -42.19070000     -30.99630000     -72.45980000
H      -41.72800000     -33.07800000     -73.56440000
C      -44.61960000     -29.57770000     -72.49940000
H      -45.20420000     -28.91850000     -73.13470000
H      -43.75330000     -28.94800000     -72.29350000
C      -45.99670000     -33.70230000     -75.19950000
H      -46.92970000     -33.13590000     -75.15470000
H      -45.80360000     -33.94380000     -76.30600000
S      -45.71690000     -29.66640000     -70.95930000
S      -46.31450000     -35.25440000     -74.33000000
C      -45.08320000     -31.00210000     -69.81060000
H      -44.41690000     -31.54290000     -70.56770000
H      -44.30950000     -30.52690000     -69.11450000
C      -47.44250000     -34.63270000     -72.98020000
H      -47.91450000     -35.53720000     -72.63660000
H      -48.25480000     -33.99320000     -73.36940000
C      -46.97140000     -33.87020000     -71.69940000
H      -46.48490000     -32.91480000     -71.93220000
H      -47.89410000     -33.50080000     -71.22910000
C      -46.23570000     -31.77370000     -69.12840000
H      -47.08730000     -31.82490000     -69.71320000
H      -46.61580000     -31.22130000     -68.28430000
C      -45.77480000     -33.10280000     -68.69870000
C      -45.19980000     -33.29260000     -67.47910000
C      -45.71030000     -34.25480000     -69.54430000
H      -45.08090000     -32.48120000     -66.80200000
C      -45.07600000     -35.25780000     -68.84170000
C      -46.24100000     -34.77260000     -70.80550000
C      -45.98680000     -36.07750000     -70.97930000
S      -44.59140000     -34.93860000     -67.22730000
S      -44.98680000     -36.75570000     -69.70280000
H      -46.05410000     -36.63290000     -71.91060000
