40
Properties=species:S:1:pos:R:3 #=T CELL(abcABC):=T 1.889726e+02=T 90.00000=T Traj:=T positionsangstrom=T Step:=T 0=T Bead:=T pbc="F F F"
C      -43.77430000     -33.42340000     -74.06400000
C      -45.01840000     -32.85190000     -74.41720000
C      -45.22620000     -31.55490000     -73.96380000
C      -44.21880000     -30.85090000     -73.29300000
C      -42.97660000     -31.39080000     -73.09920000
C      -42.74720000     -32.70950000     -73.51140000
H      -43.68510000     -34.49210000     -74.27680000
H      -46.07710000     -30.91400000     -74.08890000
H      -42.12960000     -30.78270000     -72.69980000
H      -41.81550000     -33.16130000     -73.35940000
C      -44.53150000     -29.50150000     -72.75130000
H      -44.97650000     -28.81620000     -73.50010000
H      -43.78360000     -28.86890000     -72.35560000
C      -45.98870000     -33.67120000     -75.23000000
H      -46.86960000     -33.03990000     -75.30130000
H      -45.62000000     -33.99590000     -76.25720000
S      -45.81840000     -29.74630000     -71.40330000
S      -46.63850000     -35.27770000     -74.33290000
C      -45.08830000     -31.23300000     -70.41770000
H      -44.82300000     -32.12750000     -71.10010000
H      -44.11700000     -30.87550000     -70.02350000
C      -47.63070000     -34.83280000     -72.80740000
H      -47.87180000     -35.82030000     -72.44210000
H      -48.67620000     -34.32510000     -73.04300000
C      -46.95650000     -34.02720000     -71.70400000
H      -46.29740000     -33.21350000     -72.06360000
H      -47.74700000     -33.43180000     -71.23060000
C      -45.99920000     -31.64450000     -69.31070000
H      -46.98980000     -31.58210000     -69.66020000
H      -45.98190000     -30.85150000     -68.53340000
C      -45.52630000     -32.99360000     -68.78630000
C      -45.05450000     -33.07830000     -67.50310000
C      -45.50180000     -34.25790000     -69.53340000
H      -44.83320000     -32.28820000     -66.73990000
C      -44.96980000     -35.21680000     -68.68130000
C      -46.14950000     -34.83910000     -70.67950000
C      -45.93340000     -36.21380000     -70.71890000
S      -44.48020000     -34.66820000     -67.02170000
S      -45.03780000     -36.78100000     -69.31680000
H      -46.15340000     -36.94070000     -71.50680000
