40
Properties=species:S:1:pos:R:3 #=T CELL(abcABC):=T 1.889726e+02=T 90.00000=T Traj:=T positionsangstrom=T Step:=T 0=T Bead:=T pbc="F F F"
C      -43.58250000     -33.35250000     -74.80060000
C      -45.04610000     -33.22800000     -74.51510000
C      -45.54090000     -31.97740000     -74.15540000
C      -44.71890000     -30.91700000     -73.72610000
C      -43.35310000     -31.14620000     -73.68420000
C      -42.77340000     -32.32450000     -74.29590000
H      -43.21090000     -34.19990000     -75.35770000
H      -46.64110000     -31.86840000     -74.17300000
H      -42.69790000     -30.40040000     -73.15710000
H      -41.73860000     -32.39590000     -74.26810000
C      -45.29690000     -29.62380000     -73.21250000
H      -46.04700000     -29.26770000     -73.99720000
H      -44.57090000     -28.83750000     -72.89860000
C      -45.98260000     -34.28850000     -75.03090000
H      -46.89560000     -33.90550000     -75.30370000
H      -45.48110000     -34.77430000     -75.93120000
S      -46.22680000     -30.01920000     -71.60300000
S      -46.28710000     -35.59250000     -73.79800000
C      -45.08630000     -31.06990000     -70.62650000
H      -44.92150000     -31.95740000     -71.24180000
H      -44.20830000     -30.47070000     -70.52750000
C      -47.45770000     -34.70420000     -72.62310000
H      -48.21020000     -35.38160000     -72.34160000
H      -47.99330000     -33.92910000     -73.19000000
C      -46.97690000     -33.91970000     -71.37570000
H      -46.34380000     -33.14570000     -71.77470000
H      -47.86940000     -33.47390000     -70.95320000
C      -45.75530000     -31.48810000     -69.30440000
H      -46.83390000     -31.67780000     -69.53720000
H      -45.74570000     -30.74060000     -68.63780000
C      -45.24590000     -32.77950000     -68.66770000
C      -44.50540000     -32.80780000     -67.52230000
C      -45.50260000     -34.14040000     -69.18700000
H      -43.93980000     -31.95540000     -67.23950000
C      -44.96950000     -35.08240000     -68.33300000
C      -46.22700000     -34.67480000     -70.34860000
C      -46.04080000     -36.06580000     -70.38700000
S      -44.09900000     -34.46710000     -66.98000000
S      -45.03450000     -36.66570000     -69.09160000
H      -46.33760000     -36.86020000     -71.03370000
