40
Properties=species:S:1:pos:R:3 #=T CELL(abcABC):=T 1.889726e+02=T 90.00000=T Traj:=T positionsangstrom=T Step:=T 0=T Bead:=T pbc="F F F"
C      -43.70150000     -33.41150000     -74.64960000
C      -45.04070000     -33.20600000     -74.54340000
C      -45.68260000     -32.00830000     -74.05020000
C      -44.86720000     -30.96550000     -73.64670000
C      -43.44330000     -31.22150000     -73.61330000
C      -42.87710000     -32.35710000     -74.16550000
H      -43.36710000     -34.39190000     -75.04840000
H      -46.73990000     -31.91870000     -73.92910000
H      -42.79800000     -30.56260000     -73.12340000
H      -41.76340000     -32.39360000     -74.13130000
C      -45.39120000     -29.59900000     -73.10400000
H      -46.08680000     -29.21680000     -73.86850000
H      -44.49000000     -28.99840000     -73.01540000
C      -45.87120000     -34.33770000     -75.11940000
H      -46.84840000     -34.01860000     -75.49910000
H      -45.38230000     -34.85790000     -75.88120000
S      -46.36090000     -29.82350000     -71.56700000
S      -46.15010000     -35.61730000     -73.81700000
C      -45.15700000     -30.87350000     -70.52690000
H      -44.71740000     -31.54710000     -71.23740000
H      -44.41740000     -30.22990000     -70.17480000
C      -47.35280000     -34.81850000     -72.69270000
H      -48.09610000     -35.52660000     -72.32540000
H      -47.95200000     -34.14950000     -73.21860000
C      -46.80160000     -34.00560000     -71.53100000
H      -46.09900000     -33.19500000     -71.81860000
H      -47.65730000     -33.38850000     -71.17360000
C      -45.96620000     -31.66890000     -69.49800000
H      -46.81550000     -32.15650000     -69.88660000
H      -46.27450000     -30.99280000     -68.64750000
C      -45.19850000     -32.81830000     -68.82310000
C      -44.33960000     -32.74220000     -67.74890000
C      -45.46310000     -34.16930000     -69.20490000
H      -43.98670000     -31.91480000     -67.10670000
C      -44.77070000     -35.11050000     -68.42190000
C      -46.17710000     -34.74810000     -70.33130000
C      -46.20500000     -36.12320000     -70.23200000
S      -43.83310000     -34.34440000     -67.18220000
S      -45.19780000     -36.70710000     -68.88150000
H      -46.63430000     -36.72220000     -71.00110000
