40
Properties=species:S:1:pos:R:3 #=T CELL(abcABC):=T 1.889726e+02=T 90.00000=T Traj:=T positionsangstrom=T Step:=T 0=T Bead:=T pbc="F F F"
C      -43.88280000     -33.44470000     -74.36500000
C      -45.23880000     -33.07490000     -74.56440000
C      -45.59520000     -31.79210000     -74.03890000
C      -44.70130000     -30.91200000     -73.47580000
C      -43.34870000     -31.28510000     -73.50150000
C      -42.96250000     -32.49410000     -73.98470000
H      -43.44520000     -34.40870000     -74.61470000
H      -46.59700000     -31.42150000     -74.22940000
H      -42.59830000     -30.52000000     -73.23280000
H      -41.94170000     -32.64650000     -73.97410000
C      -45.00310000     -29.57880000     -72.93080000
H      -45.54150000     -28.93180000     -73.64620000
H      -44.05890000     -28.98180000     -72.74710000
C      -46.27230000     -34.03900000     -75.04040000
H      -47.21710000     -33.60780000     -75.36570000
H      -45.82850000     -34.57290000     -75.95530000
S      -45.92410000     -29.66040000     -71.40390000
S      -46.71390000     -35.45530000     -73.84140000
C      -45.11070000     -31.08080000     -70.51250000
H      -44.86730000     -31.81640000     -71.23550000
H      -44.12520000     -30.89760000     -70.10450000
C      -47.79980000     -35.00180000     -72.42950000
H      -48.15570000     -35.92900000     -72.01060000
H      -48.69900000     -34.44510000     -72.76550000
C      -47.23230000     -34.09630000     -71.31010000
H      -46.92910000     -33.16510000     -71.77480000
H      -48.15540000     -33.95310000     -70.67720000
C      -45.95700000     -31.71250000     -69.42070000
H      -46.94780000     -32.02920000     -69.92870000
H      -46.21800000     -30.89860000     -68.77520000
C      -45.24890000     -32.89650000     -68.79300000
C      -44.47530000     -32.84080000     -67.68770000
C      -45.29040000     -34.18890000     -69.41260000
H      -44.36110000     -31.96300000     -67.02040000
C      -44.59360000     -35.14440000     -68.68540000
C      -46.10220000     -34.75450000     -70.48670000
C      -45.97380000     -36.10230000     -70.50350000
S      -43.78580000     -34.46550000     -67.28560000
S      -44.87780000     -36.79070000     -69.25540000
H      -46.33730000     -36.79220000     -71.30290000
