40
Properties=species:S:1:pos:R:3 #=T CELL(abcABC):=T 1.889726e+02=T 90.00000=T Traj:=T positionsangstrom=T Step:=T 0=T Bead:=T pbc="F F F"
C      -44.98770000     -34.48790000     -67.87160000
C      -43.71800000     -34.21960000     -68.52660000
C      -43.44900000     -32.88530000     -68.83000000
C      -44.40900000     -31.85080000     -68.67980000
C      -45.63600000     -32.14540000     -68.06740000
C      -45.87920000     -33.45250000     -67.63840000
H      -45.27060000     -35.49330000     -67.64110000
H      -42.55000000     -32.60600000     -69.35670000
H      -46.36450000     -31.36330000     -67.84860000
H      -46.88540000     -33.57110000     -67.16970000
C      -44.03810000     -30.49330000     -69.14390000
H      -42.96990000     -30.51460000     -69.47070000
H      -44.15860000     -29.76560000     -68.30330000
C      -42.73870000     -35.32440000     -68.87360000
H      -41.80480000     -35.33250000     -68.22300000
H      -43.21620000     -36.30650000     -68.58480000
S      -45.12600000     -29.79170000     -70.45040000
S      -42.35380000     -35.29660000     -70.70120000
C      -44.28950000     -30.54580000     -71.92740000
H      -44.61170000     -29.87940000     -72.68640000
H      -43.28110000     -30.39680000     -71.96850000
C      -44.15230000     -35.38520000     -71.34510000
H      -44.67810000     -34.55960000     -70.94530000
H      -44.60030000     -36.34070000     -70.99160000
C      -44.05970000     -35.33670000     -72.87500000
H      -43.40090000     -34.51650000     -73.18760000
H      -43.79640000     -36.28280000     -73.23440000
C      -44.56260000     -32.06980000     -72.12470000
H      -44.19140000     -32.60880000     -71.25860000
H      -43.82840000     -32.33800000     -72.94120000
C      -45.96170000     -32.55120000     -72.53880000
C      -47.06830000     -31.79510000     -72.46120000
C      -46.21410000     -33.85580000     -73.08730000
H      -47.12960000     -30.73950000     -72.22620000
C      -47.48090000     -34.00860000     -73.60630000
C      -45.45240000     -35.07190000     -73.41210000
C      -46.08940000     -36.01640000     -74.11270000
S      -48.52240000     -32.69620000     -73.07790000
S      -47.76430000     -35.54860000     -74.46600000
H      -45.71320000     -36.95420000     -74.43390000
