40
Properties=species:S:1:pos:R:3 #=T CELL(abcABC):=T 1.889726e+02=T 90.00000=T Traj:=T positionsangstrom=T Step:=T 0=T Bead:=T pbc="F F F"
C      -44.90550000     -34.43360000     -68.02760000
C      -43.65280000     -34.16210000     -68.53590000
C      -43.25230000     -32.82330000     -68.78460000
C      -44.22550000     -31.78150000     -68.63980000
C      -45.52910000     -32.02990000     -68.20560000
C      -45.81680000     -33.36700000     -67.85390000
H      -45.22230000     -35.49040000     -67.82770000
H      -42.19600000     -32.70850000     -69.11540000
H      -46.18440000     -31.17220000     -67.97400000
H      -46.70560000     -33.64060000     -67.52300000
C      -43.91280000     -30.32600000     -69.06730000
H      -42.89090000     -30.22790000     -69.43140000
H      -43.82090000     -29.62710000     -68.25230000
C      -42.66660000     -35.28240000     -68.95570000
H      -41.63390000     -35.10460000     -68.56090000
H      -43.02560000     -36.28460000     -68.61570000
S      -45.10660000     -29.76820000     -70.39330000
S      -42.31390000     -35.35260000     -70.77110000
C      -44.36730000     -30.72190000     -71.85910000
H      -44.63190000     -30.19690000     -72.72070000
H      -43.33330000     -30.51700000     -71.69490000
C      -43.95850000     -35.71590000     -71.46020000
H      -44.81440000     -35.18810000     -70.91530000
H      -44.11980000     -36.77850000     -71.33860000
C      -44.00720000     -35.26770000     -72.90040000
H      -43.46350000     -34.33270000     -73.03490000
H      -43.48250000     -35.98270000     -73.59930000
C      -44.70030000     -32.16900000     -72.03710000
H      -44.45400000     -32.69480000     -71.05090000
H      -43.93080000     -32.50930000     -72.71670000
C      -46.04200000     -32.54940000     -72.58710000
C      -47.18580000     -31.79100000     -72.64210000
C      -46.26420000     -33.82740000     -73.19790000
H      -47.37580000     -30.86740000     -72.23440000
C      -47.61150000     -34.02270000     -73.52230000
C      -45.49260000     -35.05700000     -73.20730000
C      -46.25530000     -36.06530000     -73.79520000
S      -48.60110000     -32.57530000     -73.31060000
S      -47.91190000     -35.65010000     -74.15730000
H      -45.90480000     -37.05470000     -74.00020000
