40
Properties=species:S:1:pos:R:3 #=T CELL(abcABC):=T 1.889726e+02=T 90.00000=T Traj:=T positionsangstrom=T Step:=T 0=T Bead:=T pbc="F F F"
C      -44.99700000     -34.41450000     -68.01300000
C      -43.68130000     -34.17240000     -68.45940000
C      -43.33780000     -32.85330000     -68.81910000
C      -44.25890000     -31.80510000     -68.58790000
C      -45.50210000     -32.04860000     -67.92270000
C      -45.88820000     -33.37340000     -67.78920000
H      -45.28120000     -35.42040000     -67.79300000
H      -42.33020000     -32.70900000     -69.24070000
H      -46.20830000     -31.23340000     -67.89630000
H      -46.78020000     -33.63640000     -67.35320000
C      -43.95640000     -30.42140000     -69.00030000
H      -42.90020000     -30.35070000     -69.31800000
H      -44.23410000     -29.70100000     -68.20860000
C      -42.68690000     -35.30310000     -68.79750000
H      -41.73880000     -35.12330000     -68.39630000
H      -43.05260000     -36.25900000     -68.46190000
S      -45.05580000     -29.83950000     -70.37260000
S      -42.40370000     -35.34250000     -70.66910000
C      -44.50050000     -30.55100000     -71.99380000
H      -45.18150000     -30.04980000     -72.79000000
H      -43.38180000     -30.27010000     -72.14120000
C      -44.02340000     -35.40090000     -71.41690000
H      -44.66550000     -34.65210000     -71.03840000
H      -44.51790000     -36.35870000     -71.10550000
C      -44.05150000     -35.33330000     -72.94380000
H      -43.31460000     -34.60090000     -73.32520000
H      -43.62520000     -36.26750000     -73.37220000
C      -44.56740000     -32.04390000     -72.15690000
H      -44.11630000     -32.52930000     -71.30360000
H      -43.90700000     -32.34540000     -72.99470000
C      -45.94400000     -32.58770000     -72.60080000
C      -47.07740000     -31.82610000     -72.58710000
C      -46.24430000     -33.92090000     -73.12400000
H      -47.32380000     -30.89810000     -72.19610000
C      -47.55830000     -34.07950000     -73.53040000
C      -45.43370000     -35.13180000     -73.49490000
C      -46.17730000     -36.01740000     -74.19030000
S      -48.50450000     -32.68890000     -73.21790000
S      -47.91620000     -35.54790000     -74.29180000
H      -45.85330000     -36.96010000     -74.47200000
