40
Properties=species:S:1:pos:R:3 #=T CELL(abcABC):=T 1.889726e+02=T 90.00000=T Traj:=T positionsangstrom=T Step:=T 0=T Bead:=T pbc="F F F"
C      -44.12190000     -34.77630000     -68.26620000
C      -43.04120000     -34.09620000     -68.87290000
C      -43.09920000     -32.71550000     -69.04890000
C      -44.27300000     -31.99350000     -68.73380000
C      -45.35430000     -32.69160000     -68.15750000
C      -45.26550000     -34.06760000     -67.93570000
H      -44.16260000     -35.82650000     -68.39280000
H      -42.28660000     -32.20400000     -69.50500000
H      -46.28980000     -32.18750000     -67.92380000
H      -45.95140000     -34.56840000     -67.32640000
C      -44.27680000     -30.48010000     -69.01460000
H      -43.28420000     -30.06390000     -69.23370000
H      -44.56020000     -29.90720000     -68.14450000
C      -41.88000000     -34.86390000     -69.35270000
H      -40.92570000     -34.30340000     -69.26820000
H      -41.75490000     -35.79270000     -68.78310000
S      -45.40550000     -29.85340000     -70.35500000
S      -42.09170000     -35.47830000     -71.16700000
C      -44.55120000     -30.42290000     -71.81850000
H      -44.82470000     -29.72830000     -72.67420000
H      -43.45230000     -30.25890000     -71.67380000
C      -43.98180000     -35.25430000     -71.48860000
H      -44.29240000     -34.35330000     -70.99040000
H      -44.53200000     -36.05200000     -70.91620000
C      -44.21370000     -35.34940000     -72.98360000
H      -43.55340000     -34.63970000     -73.46850000
H      -43.95140000     -36.30330000     -73.34180000
C      -44.70110000     -31.93850000     -72.33330000
H      -44.36440000     -32.60000000     -71.51170000
H      -43.96410000     -32.06300000     -73.18470000
C      -46.06510000     -32.43830000     -72.76730000
C      -47.16020000     -31.60560000     -72.83520000
C      -46.32730000     -33.82560000     -72.97580000
H      -47.08750000     -30.56600000     -72.49150000
C      -47.76500000     -33.93680000     -73.09710000
C      -45.69480000     -35.05830000     -73.20590000
C      -46.59460000     -36.05330000     -73.54320000
S      -48.72850000     -32.44740000     -73.08510000
S      -48.31050000     -35.55830000     -73.53590000
H      -46.40950000     -37.16010000     -73.61420000
