40
Properties=species:S:1:pos:R:3 #=T CELL(abcABC):=T 1.889726e+02=T 90.00000=T Traj:=T positionsangstrom=T Step:=T 0=T Bead:=T pbc="F F F"
C      -45.06840000     -34.75110000     -67.97140000
C      -43.90010000     -34.36990000     -68.61340000
C      -43.59870000     -33.04700000     -68.82030000
C      -44.56160000     -32.04310000     -68.53350000
C      -45.78820000     -32.39210000     -67.91430000
C      -46.01730000     -33.78340000     -67.70750000
H      -45.34030000     -35.79960000     -67.70060000
H      -42.60090000     -32.77710000     -69.20560000
H      -46.50880000     -31.67890000     -67.55730000
H      -46.96740000     -33.95860000     -67.24930000
C      -44.37080000     -30.56620000     -68.77220000
H      -43.36410000     -30.21250000     -69.02880000
H      -44.48970000     -30.12810000     -67.78750000
C      -42.88040000     -35.43950000     -68.78030000
H      -42.13870000     -35.31640000     -68.06690000
H      -43.32720000     -36.38370000     -68.40990000
S      -45.49680000     -29.96740000     -70.18940000
S      -42.28840000     -35.68770000     -70.52020000
C      -44.55130000     -30.30700000     -71.74170000
H      -44.88860000     -29.67070000     -72.56460000
H      -43.58220000     -29.94370000     -71.65470000
C      -43.93070000     -35.59350000     -71.31160000
H      -44.57480000     -34.86860000     -70.79880000
H      -44.44040000     -36.61320000     -71.24900000
C      -43.81930000     -35.01680000     -72.74910000
H      -43.41640000     -33.96630000     -72.63700000
H      -43.16980000     -35.63580000     -73.37480000
C      -44.55290000     -31.75740000     -72.22570000
H      -44.12620000     -32.38050000     -71.41020000
H      -43.68570000     -31.68170000     -72.89380000
C      -45.76720000     -32.26750000     -72.88670000
C      -46.96130000     -31.55120000     -72.97130000
C      -46.00650000     -33.61130000     -73.36810000
H      -47.11380000     -30.52760000     -72.52650000
C      -47.34500000     -33.84870000     -73.75500000
C      -45.20630000     -34.80050000     -73.40490000
C      -45.93770000     -35.83430000     -74.02200000
S      -48.35880000     -32.39870000     -73.55980000
S      -47.56830000     -35.51000000     -74.33690000
H      -45.52150000     -36.83250000     -74.10260000
