40
Properties=species:S:1:pos:R:3 #=T CELL(abcABC):=T 1.889726e+02=T 90.00000=T Traj:=T positionsangstrom=T Step:=T 0=T Bead:=T pbc="F F F"
C      -45.09650000     -34.90860000     -67.74160000
C      -43.83970000     -34.35210000     -68.24390000
C      -43.72560000     -33.04560000     -68.62350000
C      -44.82950000     -32.18520000     -68.48140000
C      -46.03600000     -32.69910000     -67.99640000
C      -46.18620000     -34.09210000     -67.63450000
H      -45.26170000     -35.92850000     -67.45680000
H      -42.74060000     -32.70160000     -68.98040000
H      -46.83750000     -31.96340000     -67.89870000
H      -47.12590000     -34.52390000     -67.24740000
C      -44.60330000     -30.76700000     -68.71420000
H      -43.52550000     -30.44560000     -68.80890000
H      -44.93410000     -30.11730000     -67.90930000
C      -42.69870000     -35.32950000     -68.53220000
H      -41.77640000     -35.05580000     -68.03420000
H      -42.96360000     -36.30680000     -68.15250000
S      -45.64390000     -30.23440000     -70.19030000
S      -42.28320000     -35.44100000     -70.37960000
C      -44.48140000     -30.45150000     -71.61400000
H      -44.81220000     -29.79230000     -72.49420000
H      -43.44880000     -30.03110000     -71.36350000
C      -44.01800000     -35.45430000     -71.18710000
H      -44.60800000     -34.77270000     -70.63430000
H      -44.50550000     -36.45220000     -70.98200000
C      -43.83280000     -35.12520000     -72.64920000
H      -43.02130000     -34.42490000     -72.90280000
H      -43.40280000     -36.02340000     -73.15480000
C      -44.44690000     -31.87260000     -72.14920000
H      -44.30270000     -32.63230000     -71.33600000
H      -43.59380000     -32.06060000     -72.73940000
C      -45.80320000     -32.21170000     -72.82780000
C      -46.85680000     -31.39040000     -73.16900000
C      -46.04010000     -33.57180000     -73.22750000
H      -47.05240000     -30.37250000     -72.87690000
C      -47.25120000     -33.72430000     -73.91600000
C      -45.18100000     -34.81300000     -73.24130000
C      -45.89880000     -35.76900000     -73.92760000
S      -48.16070000     -32.24270000     -74.01670000
S      -47.40750000     -35.28990000     -74.68380000
H      -45.54750000     -36.76220000     -74.04770000
