40
Properties=species:S:1:pos:R:3 #=T CELL(abcABC):=T 1.889726e+02=T 90.00000=T Traj:=T positionsangstrom=T Step:=T 0=T Bead:=T pbc="F F F"
C      -46.93540000     -30.47880000     -70.95610000
C      -46.22320000     -30.86190000     -69.75950000
C      -46.91230000     -31.75810000     -68.91870000
C      -48.15620000     -32.30120000     -69.23210000
C      -48.86400000     -31.91940000     -70.38520000
C      -48.23180000     -30.99020000     -71.24040000
H      -46.40880000     -29.79860000     -71.56330000
H      -46.45100000     -32.01950000     -67.96460000
H      -49.74130000     -32.35380000     -70.78950000
H      -48.79470000     -30.62590000     -72.10360000
C      -48.65680000     -33.39340000     -68.31580000
H      -49.75750000     -33.50570000     -68.56030000
H      -48.60860000     -33.20770000     -67.29650000
C      -44.81150000     -30.44370000     -69.39170000
H      -44.82020000     -29.60200000     -68.67460000
H      -44.25400000     -31.23490000     -68.90870000
S      -47.61620000     -34.94540000     -68.45930000
S      -43.81160000     -29.86900000     -70.74070000
C      -47.18120000     -35.19590000     -70.30800000
H      -47.21380000     -36.24880000     -70.59140000
H      -47.94840000     -34.68000000     -70.85890000
C      -43.93780000     -31.34610000     -71.83900000
H      -43.51140000     -31.11090000     -72.79350000
H      -45.03610000     -31.58320000     -71.87010000
C      -43.14160000     -32.48910000     -71.17470000
H      -42.22010000     -32.11530000     -70.87540000
H      -43.72910000     -32.82960000     -70.31460000
C      -45.74230000     -34.74970000     -70.64580000
H      -45.07870000     -35.26380000     -69.94550000
H      -45.67140000     -33.68960000     -70.50040000
C      -45.23610000     -35.14900000     -72.00150000
C      -45.93060000     -35.92270000     -72.91600000
C      -43.93470000     -34.68600000     -72.49220000
H      -46.91740000     -36.29640000     -72.93370000
C      -43.60160000     -35.37600000     -73.65360000
C      -42.98590000     -33.69810000     -72.11020000
C      -41.86310000     -33.81970000     -72.89600000
S      -44.92280000     -36.38530000     -74.26640000
S      -41.95700000     -35.04670000     -74.09020000
H      -41.05880000     -33.14320000     -73.04100000
