40
Properties=species:S:1:pos:R:3 #=T CELL(abcABC):=T 1.889726e+02=T 90.00000=T Traj:=T positionsangstrom=T Step:=T 0=T Bead:=T pbc="F F F"
C      -45.99500000     -34.75200000     -68.32460000
C      -44.58260000     -34.52740000     -68.26700000
C      -44.19920000     -33.23870000     -68.60150000
C      -45.05580000     -32.07720000     -68.44720000
C      -46.43510000     -32.36780000     -68.47170000
C      -46.87590000     -33.69070000     -68.39150000
H      -46.36180000     -35.87460000     -68.44440000
H      -43.15940000     -32.96000000     -68.69000000
H      -47.16700000     -31.57140000     -68.56120000
H      -47.92370000     -33.84480000     -68.37860000
C      -44.50650000     -30.69710000     -68.64950000
H      -43.41740000     -30.77980000     -68.54280000
H      -44.94940000     -30.03810000     -67.91940000
C      -43.45190000     -35.60060000     -68.37930000
H      -42.76840000     -35.42300000     -67.59770000
H      -43.87930000     -36.61380000     -68.18140000
S      -45.01470000     -29.79800000     -70.18430000
S      -42.60520000     -35.57880000     -69.96500000
C      -44.09790000     -30.55010000     -71.63460000
H      -44.51320000     -30.02450000     -72.50120000
H      -43.07290000     -30.23340000     -71.63760000
C      -44.07020000     -35.61190000     -71.19050000
H      -44.73320000     -34.84300000     -70.81240000
H      -44.62990000     -36.61030000     -71.21380000
C      -43.73230000     -35.24290000     -72.68830000
H      -42.99980000     -34.38660000     -72.80350000
H      -43.25970000     -36.09050000     -73.08680000
C      -44.20680000     -32.08300000     -71.75530000
H      -44.10950000     -32.60290000     -70.79590000
H      -43.32790000     -32.43690000     -72.30480000
C      -45.50080000     -32.47380000     -72.48290000
C      -46.55420000     -31.62950000     -72.74760000
C      -45.82200000     -33.80340000     -73.18230000
H      -46.57490000     -30.69130000     -72.30610000
C      -46.94130000     -33.71380000     -73.97880000
C      -45.05710000     -34.98740000     -73.39990000
C      -45.70730000     -35.86740000     -74.31480000
S      -47.84650000     -32.21070000     -73.81280000
S      -47.20300000     -35.14110000     -74.87670000
H      -45.45600000     -36.87070000     -74.68810000
