40
Properties=species:S:1:pos:R:3 #=T CELL(abcABC):=T 1.889726e+02=T 90.00000=T Traj:=T positionsangstrom=T Step:=T 0=T Bead:=T pbc="F F F"
C      -45.75910000     -34.61320000     -68.18160000
C      -44.42030000     -34.39750000     -68.33430000
C      -44.04090000     -33.05420000     -68.27310000
C      -44.96110000     -31.98400000     -68.32390000
C      -46.32820000     -32.25860000     -68.29930000
C      -46.72980000     -33.59380000     -68.23470000
H      -46.23440000     -35.66200000     -68.08780000
H      -42.96880000     -32.96910000     -68.31280000
H      -47.00710000     -31.44680000     -68.30820000
H      -47.77270000     -33.80440000     -68.07550000
C      -44.52360000     -30.55740000     -68.54470000
H      -43.44970000     -30.43000000     -68.68640000
H      -44.88220000     -29.86250000     -67.70380000
C      -43.46140000     -35.59070000     -68.45370000
H      -42.67740000     -35.64000000     -67.64030000
H      -44.09480000     -36.49110000     -68.30600000
S      -45.27760000     -29.97450000     -70.22240000
S      -42.61610000     -35.56680000     -70.16010000
C      -44.08460000     -30.73300000     -71.27780000
H      -44.01420000     -30.21030000     -72.21510000
H      -43.11220000     -30.65800000     -70.71220000
C      -44.17830000     -35.64920000     -71.14420000
H      -44.79210000     -34.83270000     -70.74490000
H      -44.74610000     -36.54690000     -71.02260000
C      -43.90150000     -35.44510000     -72.65850000
H      -43.00090000     -34.79120000     -72.80350000
H      -43.69540000     -36.43280000     -73.07090000
C      -44.32560000     -32.24340000     -71.64200000
H      -44.48560000     -32.90530000     -70.74540000
H      -43.42310000     -32.68330000     -72.03980000
C      -45.51640000     -32.52160000     -72.53920000
C      -46.54350000     -31.62280000     -72.71290000
C      -45.72990000     -33.73390000     -73.33490000
H      -46.46700000     -30.59120000     -72.53740000
C      -46.82790000     -33.64260000     -74.16790000
C      -45.06500000     -34.95540000     -73.47800000
C      -45.73960000     -35.85400000     -74.35210000
S      -47.86470000     -32.20610000     -73.87560000
S      -47.15710000     -35.12650000     -75.02620000
H      -45.45870000     -36.84510000     -74.65380000
