40
Properties=species:S:1:pos:R:3 #=T CELL(abcABC):=T 1.889726e+02=T 90.00000=T Traj:=T positionsangstrom=T Step:=T 0=T Bead:=T pbc="F F F"
C      -44.38150000     -31.46760000     -74.54210000
C      -45.76170000     -31.47710000     -74.18480000
C      -46.25590000     -30.71030000     -73.09330000
C      -45.39590000     -29.93330000     -72.33630000
C      -44.09250000     -29.85660000     -72.76790000
C      -43.54050000     -30.55970000     -73.84130000
H      -44.11870000     -32.00390000     -75.44290000
H      -47.35820000     -30.71150000     -72.97880000
H      -43.36000000     -29.31250000     -72.19720000
H      -42.47830000     -30.51950000     -73.99120000
C      -45.87700000     -29.21350000     -71.14340000
H      -46.92630000     -29.14690000     -71.22050000
H      -45.32250000     -28.29660000     -71.02370000
C      -46.74590000     -32.43350000     -74.82780000
H      -47.74010000     -31.91010000     -74.75920000
H      -46.55930000     -32.40210000     -75.89140000
S      -45.41910000     -30.11570000     -69.57270000
S      -47.01790000     -34.05500000     -74.05760000
C      -45.00640000     -31.87340000     -70.04950000
H      -45.26740000     -32.01560000     -71.14330000
H      -43.94400000     -32.04100000     -69.93830000
C      -46.93210000     -33.55610000     -72.26500000
H      -47.68520000     -32.75350000     -72.12040000
H      -45.93520000     -33.17240000     -72.17680000
C      -47.31650000     -34.84890000     -71.43030000
H      -47.84380000     -34.56960000     -70.45030000
H      -47.94780000     -35.31980000     -72.17750000
C      -45.87600000     -32.85570000     -69.21370000
H      -46.74010000     -32.92420000     -69.72870000
H      -46.09400000     -32.50300000     -68.16740000
C      -45.18050000     -34.16740000     -69.01580000
C      -44.09160000     -34.29610000     -68.17780000
C      -45.21570000     -35.28480000     -69.98870000
H      -44.03450000     -33.56480000     -67.42270000
C      -44.36610000     -36.31690000     -69.58040000
C      -46.09100000     -35.67440000     -71.01800000
C      -45.84020000     -36.91070000     -71.51180000
S      -43.15660000     -35.84050000     -68.42550000
S      -44.39840000     -37.68590000     -70.73330000
H      -46.45930000     -37.44450000     -72.31090000
