40
Properties=species:S:1:pos:R:3 #=T CELL(abcABC):=T 1.889726e+02=T 90.00000=T Traj:=T positionsangstrom=T Step:=T 0=T Bead:=T pbc="F F F"
C      -45.97480000     -34.76130000     -68.61320000
C      -44.59480000     -34.42280000     -68.49450000
C      -44.19650000     -33.04940000     -68.67100000
C      -45.11790000     -32.02590000     -68.68550000
C      -46.49900000     -32.35930000     -68.81430000
C      -46.90070000     -33.66210000     -68.75950000
H      -46.23020000     -35.83420000     -68.83200000
H      -43.08930000     -32.87100000     -68.69690000
H      -47.15790000     -31.60840000     -69.07670000
H      -47.94550000     -33.87300000     -69.12810000
C      -44.70560000     -30.58340000     -68.64520000
H      -43.59770000     -30.47540000     -68.81780000
H      -44.96120000     -30.10430000     -67.73640000
C      -43.50460000     -35.49280000     -68.30430000
H      -42.80020000     -35.13970000     -67.53530000
H      -43.97240000     -36.34210000     -67.76600000
S      -45.45140000     -29.69560000     -70.16720000
S      -42.55490000     -36.00820000     -69.77250000
C      -44.37530000     -30.26420000     -71.48110000
H      -44.61100000     -29.63760000     -72.34960000
H      -43.39710000     -29.95740000     -71.29840000
C      -43.81360000     -35.97580000     -71.15860000
H      -44.74720000     -35.56330000     -70.68900000
H      -44.02420000     -36.94510000     -71.51920000
C      -43.58160000     -35.02340000     -72.31590000
H      -43.04820000     -34.05070000     -72.06920000
H      -42.94710000     -35.44530000     -73.07750000
C      -44.28200000     -31.73810000     -71.87880000
H      -43.99080000     -32.42420000     -71.07950000
H      -43.43120000     -31.78090000     -72.64530000
C      -45.51450000     -32.35240000     -72.59570000
C      -46.65600000     -31.54450000     -72.95560000
C      -45.67380000     -33.62770000     -73.15600000
H      -46.76150000     -30.51020000     -72.73690000
C      -46.82970000     -33.79930000     -73.93590000
C      -44.85560000     -34.78030000     -73.13420000
C      -45.35970000     -35.70610000     -74.04440000
S      -47.86730000     -32.44580000     -73.87400000
S      -46.95100000     -35.31520000     -74.72470000
H      -44.90040000     -36.71410000     -74.19200000
