40
Properties=species:S:1:pos:R:3 #=T CELL(abcABC):=T 1.889726e+02=T 90.00000=T Traj:=T positionsangstrom=T Step:=T 0=T Bead:=T pbc="F F F"
C      -46.00820000     -34.79670000     -68.32820000
C      -44.64180000     -34.54870000     -68.35460000
C      -44.23320000     -33.19140000     -68.46050000
C      -45.10090000     -32.10490000     -68.71800000
C      -46.49410000     -32.40840000     -68.65870000
C      -46.90730000     -33.73180000     -68.57420000
H      -46.37130000     -35.78320000     -68.10870000
H      -43.17370000     -32.90300000     -68.65850000
H      -47.17960000     -31.58650000     -68.83430000
H      -47.99200000     -33.88100000     -68.76550000
C      -44.55380000     -30.69040000     -68.67010000
H      -43.45950000     -30.69690000     -68.58480000
H      -44.87240000     -30.09490000     -67.85180000
C      -43.65980000     -35.69930000     -68.35270000
H      -42.84050000     -35.43260000     -67.65740000
H      -44.03260000     -36.69570000     -68.26010000
S      -45.01300000     -29.66180000     -70.19450000
S      -42.71220000     -35.67590000     -70.03540000
C      -43.90210000     -30.44010000     -71.55780000
H      -43.97900000     -29.74310000     -72.48740000
H      -42.87850000     -30.39770000     -71.22070000
C      -44.13940000     -35.71480000     -71.16480000
H      -44.87130000     -34.97640000     -70.81480000
H      -44.63950000     -36.63190000     -71.18690000
C      -43.63370000     -35.28090000     -72.55750000
H      -42.91720000     -34.47220000     -72.52720000
H      -43.14520000     -36.12230000     -73.10600000
C      -44.20270000     -31.89110000     -71.90580000
H      -44.16100000     -32.36500000     -70.94490000
H      -43.34350000     -32.28510000     -72.50430000
C      -45.52230000     -32.25090000     -72.66510000
C      -46.65530000     -31.49970000     -72.93110000
C      -45.63500000     -33.57760000     -73.24200000
H      -46.81280000     -30.54820000     -72.38870000
C      -46.87000000     -33.77430000     -73.86110000
C      -44.88040000     -34.82860000     -73.29240000
C      -45.50180000     -35.78990000     -74.09390000
S      -47.99300000     -32.34460000     -73.77790000
S      -47.06450000     -35.32500000     -74.65480000
H      -45.01420000     -36.69740000     -74.43800000
