40
Properties=species:S:1:pos:R:3 #=T CELL(abcABC):=T 1.889726e+02=T 90.00000=T Traj:=T positionsangstrom=T Step:=T 0=T Bead:=T pbc="F F F"
C      -45.62980000     -34.67380000     -67.88570000
C      -44.30880000     -34.26780000     -68.25220000
C      -44.06000000     -32.92820000     -68.35350000
C      -45.07210000     -31.97030000     -68.22860000
C      -46.33270000     -32.36880000     -67.96390000
C      -46.62560000     -33.73550000     -67.66340000
H      -45.85960000     -35.73540000     -67.90240000
H      -43.00980000     -32.63340000     -68.57520000
H      -47.18320000     -31.67170000     -67.86740000
H      -47.69110000     -33.96730000     -67.53490000
C      -44.82260000     -30.51470000     -68.49890000
H      -43.79290000     -30.19930000     -68.17710000
H      -45.44750000     -29.91490000     -67.82920000
C      -43.16680000     -35.27580000     -68.47920000
H      -42.28560000     -35.06190000     -67.91660000
H      -43.37880000     -36.31090000     -68.14480000
S      -45.26740000     -29.89310000     -70.18510000
S      -42.62180000     -35.43020000     -70.21290000
C      -44.09320000     -30.80650000     -71.42340000
H      -43.99550000     -30.16080000     -72.28980000
H      -43.11190000     -30.79180000     -70.93230000
C      -44.15150000     -35.67110000     -71.16570000
H      -44.91470000     -35.03690000     -70.78560000
H      -44.40650000     -36.70540000     -70.83180000
C      -43.89720000     -35.45510000     -72.63980000
H      -43.22430000     -34.60810000     -72.89030000
H      -43.41160000     -36.32000000     -73.11000000
C      -44.40320000     -32.28680000     -71.67030000
H      -44.40060000     -32.96200000     -70.77290000
H      -43.58850000     -32.78820000     -72.22570000
C      -45.59990000     -32.59100000     -72.62080000
C      -46.52140000     -31.64300000     -72.89690000
C      -45.81480000     -33.80150000     -73.35820000
H      -46.74650000     -30.70170000     -72.30850000
C      -46.96470000     -33.76630000     -74.17870000
C      -45.10870000     -35.10110000     -73.49660000
C      -45.77430000     -35.94840000     -74.33330000
S      -47.76840000     -32.20120000     -74.10410000
S      -47.18800000     -35.22280000     -75.13560000
H      -45.55130000     -37.03130000     -74.38280000
