40
Properties=species:S:1:pos:R:3 #=T CELL(abcABC):=T 1.889726e+02=T 90.00000=T Traj:=T positionsangstrom=T Step:=T 0=T Bead:=T pbc="F F F"
C      -45.20150000     -30.91900000     -74.14740000
C      -46.36280000     -30.96010000     -73.33980000
C      -46.28090000     -30.27450000     -72.09670000
C      -45.08550000     -29.70780000     -71.61870000
C      -43.99320000     -29.57810000     -72.51920000
C      -44.07010000     -30.19310000     -73.74820000
H      -45.26780000     -31.29290000     -75.18640000
H      -47.04470000     -30.33740000     -71.27100000
H      -43.12820000     -28.87720000     -72.23960000
H      -43.12190000     -30.09840000     -74.32500000
C      -45.15320000     -29.09760000     -70.29570000
H      -45.63480000     -28.14350000     -70.21800000
H      -44.11490000     -28.89500000     -69.90260000
C      -47.66740000     -31.74960000     -73.64370000
H      -48.23250000     -31.82240000     -72.67900000
H      -48.23870000     -31.01910000     -74.17190000
S      -45.91080000     -30.26890000     -69.07910000
S      -47.52420000     -33.43210000     -74.39380000
C      -44.96300000     -31.81060000     -69.26830000
H      -44.21330000     -31.66140000     -69.98460000
H      -44.44360000     -31.91370000     -68.31360000
C      -46.11720000     -34.12000000     -73.39260000
H      -45.68570000     -33.33520000     -72.87590000
H      -45.36830000     -34.51440000     -74.02200000
C      -46.71330000     -35.15430000     -72.43150000
H      -47.34800000     -34.65590000     -71.69960000
H      -47.35580000     -35.83940000     -73.01510000
C      -45.70800000     -33.07840000     -69.65520000
H      -46.21760000     -32.98480000     -70.57710000
H      -46.43140000     -33.34300000     -68.92400000
C      -44.85710000     -34.36780000     -69.58810000
C      -44.00190000     -34.60720000     -68.57030000
C      -44.93070000     -35.53890000     -70.49360000
H      -43.72180000     -33.84180000     -67.80330000
C      -44.16880000     -36.59600000     -69.98990000
C      -45.56670000     -35.93560000     -71.76240000
C      -45.20620000     -37.21260000     -72.11720000
S      -43.25740000     -36.20750000     -68.55290000
S      -44.17020000     -38.00080000     -70.96960000
H      -45.42090000     -37.65650000     -73.06350000
