40
Properties=species:S:1:pos:R:3 #=T CELL(abcABC):=T 1.889726e+02=T 90.00000=T Traj:=T positionsangstrom=T Step:=T 0=T Bead:=T pbc="F F F"
C      -45.72970000     -34.87240000     -68.49860000
C      -44.48210000     -34.24000000     -68.43470000
C      -44.38210000     -32.86750000     -68.58010000
C      -45.52040000     -32.07700000     -68.75760000
C      -46.74460000     -32.69430000     -68.83200000
C      -46.90220000     -34.11260000     -68.73870000
H      -45.69660000     -35.91050000     -68.26050000
H      -43.41510000     -32.38940000     -68.61860000
H      -47.63360000     -32.05000000     -68.84440000
H      -47.90050000     -34.49920000     -68.79800000
C      -45.39380000     -30.52300000     -68.72740000
H      -44.37550000     -30.30510000     -68.29750000
H      -46.23590000     -30.18160000     -68.15380000
C      -43.28100000     -35.06880000     -68.22740000
H      -42.57810000     -34.63150000     -67.44760000
H      -43.45300000     -36.07180000     -67.86750000
S      -45.63110000     -29.81900000     -70.48510000
S      -42.23060000     -35.18990000     -69.80800000
C      -44.24410000     -30.37210000     -71.57170000
H      -44.27380000     -29.59260000     -72.34810000
H      -43.30650000     -30.20690000     -71.03590000
C      -43.51520000     -35.85290000     -70.98970000
H      -44.46150000     -35.67590000     -70.47900000
H      -43.40090000     -36.89860000     -70.96380000
C      -43.44520000     -35.15520000     -72.34360000
H      -42.81520000     -34.22820000     -72.27880000
H      -42.88790000     -35.79310000     -73.05420000
C      -44.21990000     -31.76910000     -72.16830000
H      -43.98600000     -32.49390000     -71.36230000
H      -43.26780000     -31.75420000     -72.76510000
C      -45.38920000     -32.32930000     -72.99700000
C      -46.32500000     -31.51200000     -73.56980000
C      -45.68370000     -33.71790000     -73.20970000
H      -46.49800000     -30.42850000     -73.41210000
C      -46.89530000     -33.97260000     -73.77970000
C      -44.89730000     -34.93330000     -72.88720000
C      -45.59090000     -36.00720000     -73.41940000
S      -47.71430000     -32.48200000     -74.09070000
S      -47.17160000     -35.60470000     -74.18240000
H      -45.42370000     -37.08450000     -73.31820000
