40
Properties=species:S:1:pos:R:3 #=T CELL(abcABC):=T 1.889726e+02=T 90.00000=T Traj:=T positionsangstrom=T Step:=T 0=T Bead:=T pbc="F F F"
C      -43.67500000     -35.60420000     -68.16370000
C      -44.29850000     -34.33070000     -68.15640000
C      -45.67240000     -34.25350000     -68.36750000
C      -46.42640000     -35.42760000     -68.60680000
C      -45.81100000     -36.65830000     -68.59730000
C      -44.40340000     -36.74220000     -68.37910000
H      -42.57430000     -35.61850000     -67.96960000
H      -46.11430000     -33.31310000     -68.14180000
H      -46.47490000     -37.59480000     -68.64380000
H      -43.91600000     -37.73080000     -68.15300000
C      -47.92180000     -35.26750000     -68.92780000
H      -48.29390000     -34.37190000     -68.35250000
H      -48.42970000     -36.09710000     -68.57830000
C      -43.54120000     -33.08960000     -67.79750000
H      -44.15570000     -32.51300000     -67.00790000
H      -42.58500000     -33.26120000     -67.30060000
S      -48.55220000     -34.90240000     -70.67000000
S      -43.22310000     -31.97360000     -69.25740000
C      -47.10970000     -34.87350000     -71.81900000
H      -46.13130000     -34.72170000     -71.40690000
H      -46.98090000     -35.95850000     -72.23590000
C      -44.84970000     -31.15910000     -69.49830000
H      -44.64400000     -30.09350000     -69.73060000
H      -45.48530000     -31.00980000     -68.61780000
C      -45.64890000     -31.78590000     -70.69680000
H      -46.01170000     -32.82250000     -70.34750000
H      -46.59440000     -31.24670000     -70.73280000
C      -47.50710000     -33.93780000     -72.98730000
H      -47.90270000     -33.03180000     -72.53470000
H      -48.21930000     -34.43830000     -73.60180000
C      -46.36390000     -33.46980000     -73.80200000
C      -46.06460000     -33.97150000     -75.04620000
C      -45.32690000     -32.45860000     -73.36890000
H      -46.73570000     -34.55520000     -75.73150000
C      -44.50960000     -32.11310000     -74.46430000
C      -45.08660000     -31.64160000     -72.13230000
C      -44.07310000     -30.74920000     -72.35160000
S      -44.70320000     -33.11990000     -75.85780000
S      -43.42740000     -30.79260000     -73.94920000
H      -43.46330000     -30.19770000     -71.67660000
