40
Properties=species:S:1:pos:R:3 #=T CELL(abcABC):=T 1.889726e+02=T 90.00000=T Traj:=T positionsangstrom=T Step:=T 0=T Bead:=T pbc="F F F"
C      -45.16210000     -30.79660000     -73.80080000
C      -46.30630000     -30.76810000     -72.96550000
C      -46.20380000     -30.23940000     -71.70660000
C      -45.03230000     -29.74950000     -71.14550000
C      -43.91160000     -29.70770000     -72.02420000
C      -43.96840000     -30.30060000     -73.30460000
H      -45.31350000     -31.13030000     -74.80910000
H      -47.01770000     -30.26480000     -70.99640000
H      -42.91310000     -29.44660000     -71.72250000
H      -42.99060000     -30.28270000     -73.91090000
C      -45.00070000     -29.25240000     -69.71190000
H      -45.82250000     -28.60190000     -69.41110000
H      -43.99700000     -28.81870000     -69.53840000
C      -47.65140000     -31.24870000     -73.47230000
H      -48.38420000     -31.10960000     -72.65130000
H      -48.03880000     -30.65280000     -74.30390000
S      -45.14300000     -30.65810000     -68.50350000
S      -47.87620000     -32.99770000     -74.09730000
C      -44.19230000     -32.10610000     -69.09110000
H      -43.30350000     -31.76080000     -69.71130000
H      -43.76650000     -32.48500000     -68.21230000
C      -46.82770000     -34.29660000     -73.37090000
H      -45.84470000     -33.98710000     -73.41110000
H      -46.88380000     -35.21370000     -73.92970000
C      -47.29600000     -34.73800000     -71.87200000
H      -47.25340000     -33.83170000     -71.18900000
H      -48.35330000     -35.07460000     -71.87340000
C      -44.95480000     -33.06030000     -70.06780000
H      -44.98100000     -32.61900000     -71.05490000
H      -45.92590000     -33.08730000     -69.64810000
C      -44.39840000     -34.36160000     -70.16550000
C      -43.13900000     -34.68330000     -69.68980000
C      -45.08440000     -35.53730000     -70.68310000
H      -42.39000000     -34.04770000     -69.26640000
C      -44.31340000     -36.68050000     -70.56560000
C      -46.37210000     -35.78490000     -71.34580000
C      -46.46020000     -37.11530000     -71.75670000
S      -42.72890000     -36.38140000     -69.76850000
S      -45.04780000     -38.05500000     -71.42530000
H      -47.22600000     -37.64970000     -72.30400000
