40
Properties=species:S:1:pos:R:3 #=T CELL(abcABC):=T 1.889726e+02=T 90.00000=T Traj:=T positionsangstrom=T Step:=T 0=T Bead:=T pbc="F F F"
C      -45.60490000     -30.74140000     -73.78400000
C      -46.59820000     -30.78320000     -72.81230000
C      -46.32790000     -30.31170000     -71.49350000
C      -45.03530000     -29.87030000     -71.14880000
C      -44.02010000     -29.89110000     -72.19750000
C      -44.32580000     -30.24810000     -73.50210000
H      -45.96870000     -30.86260000     -74.80750000
H      -47.20660000     -30.21720000     -70.86900000
H      -42.99730000     -29.55850000     -72.00610000
H      -43.63250000     -30.24180000     -74.27040000
C      -44.69630000     -29.46090000     -69.74110000
H      -45.39510000     -28.54880000     -69.59770000
H      -43.66460000     -29.00710000     -69.62580000
C      -47.94310000     -31.41820000     -73.04320000
H      -48.33340000     -31.77280000     -72.09920000
H      -48.66910000     -30.76500000     -73.50610000
S      -45.09630000     -30.61270000     -68.36620000
S      -47.61870000     -32.88510000     -74.14130000
C      -44.21950000     -32.16520000     -68.92930000
H      -43.42720000     -31.94510000     -69.60300000
H      -43.79830000     -32.57620000     -67.98590000
C      -46.53330000     -34.02320000     -73.24310000
H      -45.63020000     -33.57480000     -72.90630000
H      -46.35490000     -34.78260000     -73.93270000
C      -47.24680000     -34.63480000     -72.00210000
H      -47.42600000     -33.82960000     -71.33860000
H      -48.21120000     -35.09410000     -72.37640000
C      -45.11420000     -33.18800000     -69.62700000
H      -45.60550000     -32.85020000     -70.56010000
H      -45.91590000     -33.30390000     -68.94380000
C      -44.39120000     -34.45070000     -70.01710000
C      -43.10640000     -34.79970000     -69.62680000
C      -45.06120000     -35.47900000     -70.77340000
H      -42.63780000     -34.10540000     -68.89390000
C      -44.18710000     -36.57940000     -70.84740000
C      -46.36530000     -35.69190000     -71.38130000
C      -46.46430000     -37.01800000     -71.81230000
S      -42.65060000     -36.42650000     -70.13640000
S      -45.00920000     -38.03310000     -71.51050000
H      -47.41310000     -37.40960000     -72.19820000
