40
Properties=species:S:1:pos:R:3 #=T CELL(abcABC):=T 1.889726e+02=T 90.00000=T Traj:=T positionsangstrom=T Step:=T 0=T Bead:=T pbc="F F F"
C      -45.20230000     -30.81310000     -73.80940000
C      -46.33360000     -30.76630000     -73.06520000
C      -46.27070000     -30.27490000     -71.69510000
C      -45.12840000     -29.75210000     -71.19770000
C      -43.94840000     -29.80550000     -72.00130000
C      -43.96960000     -30.34520000     -73.29770000
H      -45.09960000     -31.22280000     -74.82510000
H      -47.18960000     -30.30610000     -71.06280000
H      -43.05530000     -29.49090000     -71.53930000
H      -42.99510000     -30.56450000     -73.80540000
C      -44.97870000     -29.17420000     -69.77660000
H      -45.66660000     -28.29920000     -69.60850000
H      -43.94720000     -28.82210000     -69.70190000
C      -47.71840000     -31.25360000     -73.56460000
H      -48.31540000     -31.17110000     -72.66670000
H      -48.10790000     -30.60220000     -74.36140000
S      -45.24510000     -30.54680000     -68.50090000
S      -47.90470000     -32.96560000     -74.15500000
C      -44.15960000     -32.02440000     -69.16650000
H      -43.22300000     -31.60210000     -69.45450000
H      -44.04020000     -32.68640000     -68.28560000
C      -46.62880000     -33.88310000     -73.15510000
H      -45.90490000     -33.09780000     -72.77310000
H      -46.07460000     -34.48310000     -73.91470000
C      -47.19450000     -34.66520000     -71.98240000
H      -47.48730000     -34.03800000     -71.09940000
H      -48.03490000     -35.18970000     -72.31640000
C      -44.82300000     -33.01100000     -70.18880000
H      -44.79810000     -32.62740000     -71.24490000
H      -45.90750000     -33.25260000     -70.02300000
C      -44.27770000     -34.42350000     -70.12860000
C      -43.18480000     -34.88240000     -69.44590000
C      -44.94400000     -35.56800000     -70.80000000
H      -42.49500000     -34.35260000     -68.84290000
C      -44.24460000     -36.73100000     -70.66770000
C      -46.20570000     -35.76810000     -71.57790000
C      -46.42390000     -37.08140000     -71.88240000
S      -42.79430000     -36.55460000     -69.72100000
S      -45.11620000     -38.12390000     -71.17070000
H      -47.25320000     -37.54480000     -72.37260000
