40
Properties=species:S:1:pos:R:3 #=T CELL(abcABC):=T 1.889726e+02=T 90.00000=T Traj:=T positionsangstrom=T Step:=T 0=T Bead:=T pbc="F F F"
C      -45.70700000     -30.39850000     -73.74140000
C      -46.63910000     -30.74000000     -72.73650000
C      -46.31240000     -30.46520000     -71.37460000
C      -45.09920000     -29.88560000     -71.02940000
C      -44.15910000     -29.61450000     -72.05440000
C      -44.46780000     -29.87000000     -73.42360000
H      -45.86840000     -30.57490000     -74.81010000
H      -47.10330000     -30.50570000     -70.61160000
H      -43.22860000     -29.10580000     -71.77140000
H      -43.81160000     -29.66970000     -74.20730000
C      -44.92640000     -29.51690000     -69.58180000
H      -45.63830000     -28.70990000     -69.21800000
H      -43.92480000     -29.08200000     -69.31330000
C      -48.08440000     -31.17920000     -72.94840000
H      -48.71420000     -31.11000000     -72.01530000
H      -48.50010000     -30.58120000     -73.74620000
S      -45.23960000     -30.86640000     -68.35310000
S      -48.24600000     -32.86440000     -73.77940000
C      -44.01940000     -32.18440000     -69.02440000
H      -43.08000000     -31.71550000     -69.42070000
H      -43.72760000     -32.73950000     -68.15550000
C      -46.71740000     -33.72180000     -73.07540000
H      -46.05390000     -32.92380000     -72.80890000
H      -46.29300000     -34.30530000     -73.91310000
C      -47.08720000     -34.66560000     -71.96440000
H      -47.27790000     -33.99350000     -71.09820000
H      -48.05020000     -35.06170000     -72.15870000
C      -44.73980000     -33.10200000     -70.00290000
H      -44.71510000     -32.56600000     -70.98420000
H      -45.82720000     -33.11610000     -69.85750000
C      -44.10520000     -34.46770000     -70.20080000
C      -43.00280000     -34.98660000     -69.60980000
C      -44.75930000     -35.53440000     -71.00640000
H      -42.25480000     -34.34260000     -69.05790000
C      -44.03910000     -36.73680000     -70.96890000
C      -46.02370000     -35.72330000     -71.72080000
C      -46.16370000     -37.01100000     -72.18470000
S      -42.62180000     -36.66170000     -69.93660000
S      -44.75260000     -38.01250000     -71.82400000
H      -46.94250000     -37.44280000     -72.74880000
