40
Properties=species:S:1:pos:R:3 #=T CELL(abcABC):=T 1.889726e+02=T 90.00000=T Traj:=T positionsangstrom=T Step:=T 0=T Bead:=T pbc="F F F"
C      -45.73630000     -30.51040000     -73.68950000
C      -46.72010000     -30.62010000     -72.70030000
C      -46.44310000     -30.26940000     -71.39680000
C      -45.08800000     -29.82840000     -71.08080000
C      -44.14230000     -29.83370000     -72.04190000
C      -44.51280000     -30.08710000     -73.38960000
H      -45.91230000     -30.91440000     -74.69090000
H      -47.16170000     -30.58860000     -70.58140000
H      -43.18150000     -29.52420000     -71.82840000
H      -43.84330000     -30.13480000     -74.11120000
C      -44.67340000     -29.43910000     -69.70260000
H      -45.06140000     -28.49380000     -69.47570000
H      -43.61630000     -29.42270000     -69.72150000
C      -48.06000000     -31.25850000     -73.09220000
H      -48.74300000     -31.41320000     -72.19950000
H      -48.65360000     -30.68370000     -73.77470000
S      -45.12090000     -30.72020000     -68.45190000
S      -47.89950000     -32.85350000     -74.04700000
C      -44.15780000     -32.21400000     -68.92590000
H      -43.18900000     -31.86520000     -69.35060000
H      -43.90340000     -32.71050000     -67.96710000
C      -46.60420000     -33.82080000     -73.09380000
H      -45.68490000     -33.21500000     -72.90570000
H      -46.26470000     -34.57040000     -73.87650000
C      -47.11430000     -34.59570000     -71.93440000
H      -47.22030000     -33.94830000     -71.02790000
H      -48.08320000     -35.03150000     -72.10100000
C      -44.98080000     -33.20750000     -69.72940000
H      -45.08990000     -32.73180000     -70.68710000
H      -45.93950000     -33.35120000     -69.15450000
C      -44.29230000     -34.58740000     -70.07660000
C      -43.07810000     -34.88150000     -69.59920000
C      -44.89170000     -35.64910000     -70.80210000
H      -42.50650000     -34.00800000     -69.13810000
C      -44.12110000     -36.79890000     -70.78160000
C      -46.10530000     -35.74190000     -71.55570000
C      -46.25610000     -36.98060000     -72.16270000
S      -42.55460000     -36.49170000     -70.03640000
S      -44.93380000     -38.06620000     -71.71330000
H      -47.10830000     -37.42780000     -72.64430000
