40
Properties=species:S:1:pos:R:3 #=T CELL(abcABC):=T 1.889726e+02=T 90.00000=T Traj:=T positionsangstrom=T Step:=T 0=T Bead:=T pbc="F F F"
C      -45.34310000     -30.79800000     -73.77580000
C      -46.35290000     -31.01050000     -72.78990000
C      -46.11610000     -30.53940000     -71.52140000
C      -44.93100000     -29.91130000     -71.07510000
C      -43.93000000     -29.77710000     -72.05100000
C      -44.12430000     -30.25430000     -73.31870000
H      -45.47480000     -31.24550000     -74.70920000
H      -46.92540000     -30.70060000     -70.81850000
H      -42.92100000     -29.32300000     -71.86240000
H      -43.29000000     -29.99090000     -74.01460000
C      -44.74570000     -29.30580000     -69.71330000
H      -45.42430000     -28.53770000     -69.51050000
H      -43.77440000     -28.83340000     -69.60050000
C      -47.72830000     -31.51900000     -73.23220000
H      -48.39410000     -31.51830000     -72.36290000
H      -48.13170000     -30.70970000     -73.92930000
S      -45.14960000     -30.58870000     -68.42460000
S      -47.80770000     -33.06600000     -74.27690000
C      -44.18270000     -32.04630000     -69.09640000
H      -43.36410000     -31.67030000     -69.69820000
H      -43.70040000     -32.61710000     -68.28880000
C      -46.61860000     -33.99340000     -73.13010000
H      -45.83550000     -33.24380000     -72.82200000
H      -46.05410000     -34.74630000     -73.75880000
C      -47.37300000     -34.62050000     -71.83320000
H      -47.52890000     -33.92080000     -71.04060000
H      -48.41570000     -34.94900000     -72.03030000
C      -45.09090000     -33.02560000     -69.79920000
H      -45.48980000     -32.50070000     -70.72360000
H      -46.05160000     -33.29670000     -69.27390000
C      -44.45280000     -34.36900000     -70.09830000
C      -43.12960000     -34.68390000     -69.72800000
C      -45.11840000     -35.48580000     -70.74570000
H      -42.47310000     -34.10980000     -69.08940000
C      -44.27360000     -36.59820000     -70.68740000
C      -46.41690000     -35.73740000     -71.38150000
C      -46.46750000     -37.02580000     -71.91010000
S      -42.73980000     -36.33100000     -70.06090000
S      -45.05080000     -38.02490000     -71.41000000
H      -47.24570000     -37.48010000     -72.54650000
