40
Properties=species:S:1:pos:R:3 #=T CELL(abcABC):=T 1.889726e+02=T 90.00000=T Traj:=T positionsangstrom=T Step:=T 0=T Bead:=T pbc="F F F"
C      -45.41040000     -30.70900000     -73.97260000
C      -46.48120000     -30.67050000     -73.07240000
C      -46.33610000     -30.25920000     -71.77250000
C      -45.06820000     -29.83080000     -71.25600000
C      -43.99310000     -30.00130000     -72.10360000
C      -44.18380000     -30.31620000     -73.49790000
H      -45.45410000     -31.19100000     -74.97970000
H      -47.14650000     -30.19780000     -71.00740000
H      -43.03110000     -29.61860000     -71.82340000
H      -43.36280000     -30.30320000     -74.16160000
C      -44.91670000     -29.42370000     -69.85200000
H      -45.68590000     -28.67620000     -69.60700000
H      -44.00690000     -28.92480000     -69.56150000
C      -47.82470000     -31.12170000     -73.55510000
H      -48.68090000     -31.02600000     -72.87970000
H      -48.15090000     -30.53210000     -74.43100000
S      -45.33730000     -30.78650000     -68.60540000
S      -47.62350000     -32.87070000     -74.25380000
C      -44.21220000     -32.21490000     -68.93230000
H      -43.25640000     -31.75010000     -69.15980000
H      -44.04110000     -32.79040000     -67.97770000
C      -46.39600000     -33.78800000     -73.21960000
H      -45.76930000     -33.03130000     -72.66950000
H      -45.74150000     -34.34040000     -73.88480000
C      -47.03700000     -34.61130000     -72.16820000
H      -47.52390000     -33.83740000     -71.56800000
H      -47.92360000     -35.13660000     -72.56800000
C      -44.81980000     -33.06890000     -70.03410000
H      -44.88570000     -32.55230000     -70.98100000
H      -45.89960000     -33.10490000     -69.79590000
C      -44.21780000     -34.39260000     -70.17220000
C      -43.08570000     -34.75600000     -69.53290000
C      -45.02020000     -35.47680000     -70.60970000
H      -42.27160000     -34.10130000     -69.21530000
C      -44.40540000     -36.72690000     -70.37140000
C      -46.16470000     -35.68560000     -71.51970000
C      -46.29160000     -37.02370000     -71.82320000
S      -42.87500000     -36.53640000     -69.53610000
S      -45.12840000     -38.07630000     -71.10320000
H      -47.10520000     -37.46980000     -72.44570000
