40
Properties=species:S:1:pos:R:3 #=T CELL(abcABC):=T 1.889726e+02=T 90.00000=T Traj:=T positionsangstrom=T Step:=T 0=T Bead:=T pbc="F F F"
C      -44.33380000     -33.88260000     -75.82520000
C      -44.20240000     -34.63980000     -74.60760000
C      -45.41580000     -34.83170000     -73.92730000
C      -46.65200000     -34.50130000     -74.53370000
C      -46.72160000     -33.83680000     -75.77560000
C      -45.52110000     -33.57430000     -76.42330000
H      -43.41470000     -33.65680000     -76.38950000
H      -45.39820000     -35.34200000     -72.95230000
H      -47.68430000     -33.77200000     -76.31690000
H      -45.52450000     -33.02080000     -77.38650000
C      -48.04390000     -34.65390000     -73.88710000
H      -48.07260000     -35.46770000     -73.23360000
H      -48.69060000     -34.79190000     -74.71400000
C      -42.89320000     -35.04810000     -74.03100000
H      -42.89740000     -36.15640000     -74.02600000
H      -42.02890000     -34.66360000     -74.56130000
S      -48.49720000     -33.15640000     -72.87340000
S      -42.70990000     -34.59870000     -72.25180000
C      -47.80360000     -33.59610000     -71.24130000
H      -48.44410000     -34.31280000     -70.70400000
H      -46.80250000     -34.13700000     -71.35960000
C      -43.04980000     -32.73790000     -72.18260000
H      -43.26120000     -32.38550000     -73.23720000
H      -42.17280000     -32.18630000     -71.73480000
C      -44.28550000     -32.43650000     -71.40140000
H      -44.44060000     -31.33740000     -71.43430000
H      -45.15440000     -32.85510000     -71.91530000
C      -47.48950000     -32.25690000     -70.40010000
H      -48.44710000     -31.81680000     -70.04550000
H      -46.94360000     -31.52200000     -71.08000000
C      -46.66420000     -32.39530000     -69.11550000
C      -47.27180000     -32.51980000     -67.87270000
C      -45.25530000     -32.47820000     -69.03420000
H      -48.37380000     -32.54540000     -67.79650000
C      -44.81020000     -32.54550000     -67.69540000
C      -44.13830000     -32.74990000     -69.93470000
C      -42.97250000     -32.94910000     -69.26940000
S      -46.12740000     -32.56620000     -66.56950000
S      -43.01530000     -32.85690000     -67.54750000
H      -41.95410000     -32.88610000     -69.74130000
