40
Properties=species:S:1:pos:R:3 #=T CELL(abcABC):=T 1.889726e+02=T 90.00000=T Traj:=T positionsangstrom=T Step:=T 0=T Bead:=T pbc="F F F"
C      -41.77290000     -32.47070000     -70.57250000
C      -42.33660000     -31.67160000     -71.55710000
C      -43.22190000     -30.60130000     -71.18260000
C      -43.62790000     -30.48940000     -69.85490000
C      -42.93420000     -31.18560000     -68.91950000
C      -42.05460000     -32.22900000     -69.21030000
H      -41.24810000     -33.38170000     -70.84110000
H      -43.76200000     -30.04170000     -71.89750000
H      -43.29180000     -31.12050000     -67.94310000
H      -41.53990000     -32.77710000     -68.44040000
C      -44.65020000     -29.52170000     -69.42740000
H      -44.49240000     -28.59060000     -69.95180000
H      -44.61510000     -29.17140000     -68.38480000
C      -42.06360000     -31.76060000     -73.03970000
H      -41.81770000     -30.79040000     -73.37550000
H      -41.23620000     -32.46040000     -73.15230000
S      -46.30180000     -30.09280000     -69.97460000
S      -43.46940000     -32.25610000     -74.10320000
C      -46.35200000     -31.92750000     -69.75370000
H      -45.35030000     -32.23750000     -69.56290000
H      -46.92100000     -32.07840000     -68.84760000
C      -44.23500000     -33.72420000     -73.21540000
H      -44.23360000     -33.34330000     -72.13960000
H      -43.46920000     -34.53970000     -73.16310000
C      -45.56030000     -34.13420000     -73.74670000
H      -46.25950000     -33.27540000     -73.76850000
H      -45.34360000     -34.36710000     -74.76630000
C      -47.00370000     -32.63810000     -70.93640000
H      -46.41970000     -32.36320000     -71.76850000
H      -48.00970000     -32.12390000     -70.94840000
C      -47.17640000     -34.12510000     -70.69750000
C      -47.93150000     -34.65150000     -69.68280000
C      -46.84360000     -35.16450000     -71.68280000
H      -48.41590000     -34.02440000     -68.91720000
C      -47.26570000     -36.42330000     -71.20090000
C      -46.17460000     -35.27570000     -72.99770000
C      -46.05290000     -36.59270000     -73.38890000
S      -48.09850000     -36.37060000     -69.68330000
S      -46.87910000     -37.70330000     -72.33700000
H      -45.67480000     -36.92200000     -74.39360000
