40
Properties=species:S:1:pos:R:3 #=T CELL(abcABC):=T 1.889726e+02=T 90.00000=T Traj:=T positionsangstrom=T Step:=T 0=T Bead:=T pbc="F F F"
C      -45.91010000     -30.34660000     -73.20800000
C      -46.75440000     -30.78370000     -72.21350000
C      -46.37560000     -30.66200000     -70.86410000
C      -45.21380000     -30.01580000     -70.50430000
C      -44.37520000     -29.52650000     -71.47630000
C      -44.78390000     -29.62660000     -72.81070000
H      -46.40040000     -30.32980000     -74.15240000
H      -47.12550000     -30.93650000     -70.11000000
H      -43.48590000     -29.03470000     -71.18430000
H      -44.12140000     -29.20160000     -73.63500000
C      -44.77450000     -29.70760000     -69.06580000
H      -45.12650000     -28.87810000     -68.47360000
H      -43.63250000     -29.55200000     -68.96730000
C      -48.08910000     -31.33010000     -72.50580000
H      -48.58840000     -31.70480000     -71.62770000
H      -48.76620000     -30.57020000     -72.84220000
S      -45.25860000     -31.20360000     -67.95360000
S      -48.26440000     -32.60590000     -73.82020000
C      -44.22380000     -32.63300000     -68.60640000
H      -43.31760000     -32.16700000     -69.10780000
H      -44.02060000     -33.25400000     -67.77570000
C      -46.79280000     -33.70630000     -73.55390000
H      -46.04340000     -32.90150000     -73.49320000
H      -46.75310000     -34.38650000     -74.47460000
C      -47.01780000     -34.58470000     -72.28380000
H      -47.05850000     -34.06760000     -71.39220000
H      -47.96640000     -35.15170000     -72.35580000
C      -45.02260000     -33.45430000     -69.64810000
H      -45.14450000     -32.82220000     -70.55360000
H      -46.01310000     -33.64230000     -69.24960000
C      -44.43060000     -34.81730000     -70.06690000
C      -43.33750000     -35.35970000     -69.34730000
C      -44.74170000     -35.49000000     -71.28700000
H      -43.08360000     -35.10950000     -68.32270000
C      -43.79220000     -36.54430000     -71.54980000
C      -45.84790000     -35.54610000     -72.19790000
C      -45.71670000     -36.58530000     -73.10560000
S      -42.50000000     -36.56860000     -70.31700000
S      -44.34270000     -37.58810000     -72.81860000
H      -46.41430000     -36.87260000     -73.88860000
