40
Properties=species:S:1:pos:R:3 #=T CELL(abcABC):=T 1.889726e+02=T 90.00000=T Traj:=T positionsangstrom=T Step:=T 0=T Bead:=T pbc="F F F"
C      -44.24280000     -33.10840000     -75.38290000
C      -44.33070000     -34.22220000     -74.47910000
C      -45.59810000     -34.65340000     -74.10210000
C      -46.78310000     -34.00940000     -74.53360000
C      -46.66730000     -32.96210000     -75.46850000
C      -45.38400000     -32.42050000     -75.79410000
H      -43.28910000     -32.89390000     -75.72670000
H      -45.77350000     -35.53580000     -73.54650000
H      -47.55970000     -32.33860000     -75.66650000
H      -45.30990000     -31.61730000     -76.51990000
C      -48.06790000     -34.41540000     -73.87850000
H      -47.99210000     -35.41720000     -73.50840000
H      -48.86850000     -34.37880000     -74.71020000
C      -43.07880000     -34.85330000     -74.03440000
H      -43.19880000     -35.95640000     -74.03320000
H      -42.24800000     -34.68000000     -74.70680000
S      -48.70200000     -33.23600000     -72.61270000
S      -42.52180000     -34.30980000     -72.25250000
C      -47.61680000     -33.47040000     -71.17920000
H      -48.05010000     -34.26520000     -70.56200000
H      -46.58530000     -33.75700000     -71.56470000
C      -42.96820000     -32.44870000     -72.23910000
H      -43.09020000     -32.17760000     -73.24860000
H      -42.14050000     -31.91800000     -71.91460000
C      -44.17900000     -32.16780000     -71.42590000
H      -44.32020000     -31.08160000     -71.45200000
H      -45.12440000     -32.57100000     -71.89140000
C      -47.42590000     -32.20380000     -70.38340000
H      -48.44230000     -31.87140000     -70.02260000
H      -47.02930000     -31.33440000     -70.98750000
C      -46.63750000     -32.47910000     -69.17030000
C      -47.16310000     -32.71570000     -67.86530000
C      -45.23610000     -32.85610000     -69.18930000
H      -48.21740000     -32.56430000     -67.51480000
C      -44.82040000     -33.42830000     -67.93980000
C      -44.14100000     -32.69080000     -70.08910000
C      -42.98350000     -32.93760000     -69.48040000
S      -46.09690000     -33.56200000     -66.80570000
S      -43.11780000     -33.59720000     -67.80240000
H      -42.03290000     -32.71490000     -69.93210000
