40
Properties=species:S:1:pos:R:3 #=T CELL(abcABC):=T 1.889726e+02=T 90.00000=T Traj:=T positionsangstrom=T Step:=T 0=T Bead:=T pbc="F F F"
C      -44.32230000     -33.55430000     -75.70830000
C      -44.25700000     -34.36620000     -74.60730000
C      -45.48360000     -34.69740000     -73.96660000
C      -46.69400000     -34.19340000     -74.47050000
C      -46.72690000     -33.31330000     -75.55920000
C      -45.56110000     -33.05450000     -76.24250000
H      -43.38570000     -33.33310000     -76.31720000
H      -45.47790000     -35.47960000     -73.18920000
H      -47.63120000     -32.85570000     -75.84780000
H      -45.46200000     -32.38490000     -77.08180000
C      -47.95550000     -34.57650000     -73.86240000
H      -47.79830000     -35.53020000     -73.33420000
H      -48.68340000     -34.72980000     -74.56930000
C      -42.92670000     -34.84430000     -74.07270000
H      -42.73850000     -35.91170000     -74.11630000
H      -42.11050000     -34.37020000     -74.67120000
S      -48.68140000     -33.29970000     -72.71230000
S      -42.70590000     -34.38210000     -72.32800000
C      -47.54750000     -33.57400000     -71.27420000
H      -47.92400000     -34.53540000     -70.72850000
H      -46.55170000     -33.80560000     -71.72580000
C      -42.93590000     -32.58320000     -72.35880000
H      -43.18800000     -32.29240000     -73.39470000
H      -41.92750000     -32.13030000     -72.16850000
C      -44.14830000     -32.23200000     -71.43920000
H      -44.35630000     -31.15130000     -71.48920000
H      -44.94560000     -32.75560000     -71.90340000
C      -47.47990000     -32.32450000     -70.39210000
H      -48.49360000     -32.01380000     -70.04580000
H      -47.13520000     -31.45400000     -71.05950000
C      -46.67050000     -32.37930000     -69.13920000
C      -47.25330000     -32.63250000     -67.90310000
C      -45.24000000     -32.64650000     -69.08990000
H      -48.28160000     -32.53990000     -67.70210000
C      -44.82740000     -32.96620000     -67.77620000
C      -44.05590000     -32.69760000     -69.99970000
C      -42.91730000     -33.02750000     -69.36700000
S      -46.16760000     -33.04720000     -66.56980000
S      -43.03930000     -33.25350000     -67.58810000
H      -42.05130000     -33.47710000     -69.83400000
