40
Properties=species:S:1:pos:R:3 #=T CELL(abcABC):=T 1.889726e+02=T 90.00000=T Traj:=T positionsangstrom=T Step:=T 0=T Bead:=T pbc="F F F"
C      -44.25810000     -33.80380000     -75.83200000
C      -44.23100000     -34.52880000     -74.66060000
C      -45.49940000     -34.87700000     -74.16720000
C      -46.67450000     -34.25050000     -74.66740000
C      -46.69260000     -33.55210000     -75.86310000
C      -45.41680000     -33.27920000     -76.40110000
H      -43.29540000     -33.52460000     -76.34090000
H      -45.58690000     -35.45790000     -73.21400000
H      -47.55250000     -33.13030000     -76.27040000
H      -45.22510000     -32.83620000     -77.39530000
C      -47.91220000     -34.61170000     -73.84050000
H      -47.79680000     -35.56080000     -73.15230000
H      -48.72160000     -34.81700000     -74.54100000
C      -42.96890000     -35.10920000     -74.06480000
H      -42.96300000     -36.23230000     -74.09190000
H      -42.13130000     -34.77050000     -74.66980000
S      -48.54990000     -33.29760000     -72.72160000
S      -42.70660000     -34.44440000     -72.30470000
C      -47.69250000     -33.59940000     -71.05090000
H      -48.41460000     -34.06990000     -70.42020000
H      -46.83150000     -34.19900000     -71.19160000
C      -43.13740000     -32.57590000     -72.37980000
H      -43.50210000     -32.30290000     -73.37110000
H      -42.22800000     -32.07770000     -72.19920000
C      -44.33760000     -32.30350000     -71.41390000
H      -44.59800000     -31.23320000     -71.52090000
H      -45.16460000     -32.86270000     -71.90460000
C      -47.35550000     -32.19790000     -70.47370000
H      -48.27650000     -31.65040000     -70.36760000
H      -46.84270000     -31.64580000     -71.18930000
C      -46.65030000     -32.37680000     -69.08810000
C      -47.31430000     -32.48840000     -67.84860000
C      -45.24630000     -32.67840000     -68.95740000
H      -48.36030000     -32.41120000     -67.61520000
C      -44.85670000     -33.08390000     -67.66660000
C      -44.08000000     -32.53340000     -69.87820000
C      -42.86810000     -32.60500000     -69.28270000
S      -46.14390000     -32.82310000     -66.53980000
S      -43.08610000     -33.10580000     -67.52110000
H      -41.82680000     -32.44600000     -69.59600000
