40
Properties=species:S:1:pos:R:3 #=T CELL(abcABC):=T 1.889726e+02=T 90.00000=T Traj:=T positionsangstrom=T Step:=T 0=T Bead:=T pbc="F F F"
C      -41.91200000     -33.11840000     -70.72850000
C      -42.17050000     -31.92320000     -71.48270000
C      -42.88250000     -30.84730000     -70.94970000
C      -43.38640000     -30.99260000     -69.62160000
C      -43.08490000     -32.14600000     -68.90830000
C      -42.42800000     -33.30930000     -69.42100000
H      -41.48230000     -33.99250000     -71.26360000
H      -43.10810000     -29.90060000     -71.46920000
H      -43.50560000     -32.25710000     -67.91220000
H      -42.39110000     -34.19780000     -68.82680000
C      -44.34480000     -29.91000000     -69.25830000
H      -43.92680000     -28.91990000     -69.33550000
H      -44.67840000     -30.11330000     -68.25910000
C      -41.79510000     -31.95840000     -72.94240000
H      -41.53400000     -31.00600000     -73.35760000
H      -41.03620000     -32.68860000     -73.16780000
S      -45.79290000     -29.86430000     -70.31650000
S      -43.34470000     -32.42270000     -73.81000000
C      -46.77100000     -31.38730000     -70.05220000
H      -46.71930000     -31.69900000     -69.00410000
H      -47.80480000     -31.14540000     -70.31380000
C      -43.99960000     -34.03270000     -73.13840000
H      -43.99350000     -33.91820000     -72.00100000
H      -43.38460000     -34.95900000     -73.38660000
C      -45.51230000     -34.20110000     -73.74110000
H      -46.05330000     -33.25970000     -73.72820000
H      -45.45240000     -34.51520000     -74.78020000
C      -46.28740000     -32.49570000     -71.02480000
H      -45.20820000     -32.43820000     -70.99910000
H      -46.54740000     -32.12570000     -71.99240000
C      -46.86740000     -33.85630000     -70.75480000
C      -47.61560000     -34.21780000     -69.58070000
C      -46.84250000     -34.95860000     -71.64190000
H      -48.01220000     -33.39620000     -68.95220000
C      -47.52670000     -36.05160000     -71.15920000
C      -46.32980000     -35.17250000     -72.96590000
C      -46.76140000     -36.36300000     -73.53030000
S      -48.25490000     -35.79820000     -69.63450000
S      -47.65820000     -37.33990000     -72.36750000
H      -46.47310000     -36.74720000     -74.50860000
