40
Properties=species:S:1:pos:R:3 #=T CELL(abcABC):=T 1.889726e+02=T 90.00000=T Traj:=T positionsangstrom=T Step:=T 0=T Bead:=T pbc="F F F"
C      -41.72600000     -32.46400000     -70.52650000
C      -42.34240000     -31.66350000     -71.50230000
C      -43.16670000     -30.66930000     -71.18610000
C      -43.56970000     -30.50890000     -69.87830000
C      -43.00280000     -31.32800000     -68.88510000
C      -42.00070000     -32.24060000     -69.22050000
H      -40.87820000     -33.07590000     -70.84970000
H      -43.48490000     -29.85960000     -71.94280000
H      -43.10940000     -31.01050000     -67.78740000
H      -41.50210000     -32.83570000     -68.46490000
C      -44.65140000     -29.48510000     -69.49680000
H      -44.56300000     -28.46360000     -69.84990000
H      -44.80990000     -29.51100000     -68.39280000
C      -41.99930000     -32.01840000     -72.87650000
H      -41.34990000     -31.20030000     -73.38540000
H      -41.34450000     -32.87010000     -72.91960000
S      -46.23050000     -30.05410000     -70.19840000
S      -43.51010000     -32.35920000     -73.92050000
C      -46.35470000     -31.84780000     -69.78790000
H      -45.34040000     -32.23890000     -69.62060000
H      -46.96040000     -31.98580000     -68.85210000
C      -44.26320000     -33.81490000     -73.05480000
H      -44.30860000     -33.59620000     -72.01230000
H      -43.63490000     -34.69110000     -73.13760000
C      -45.58120000     -34.03610000     -73.70480000
H      -46.14250000     -33.10100000     -73.71190000
H      -45.47680000     -34.27860000     -74.78760000
C      -46.93360000     -32.58970000     -70.95960000
H      -46.29010000     -32.50560000     -71.82050000
H      -47.89000000     -32.15030000     -71.22170000
C      -47.10520000     -34.13540000     -70.72800000
C      -47.68770000     -34.56090000     -69.54550000
C      -47.07470000     -35.11630000     -71.75080000
H      -47.89350000     -34.00480000     -68.70510000
C      -47.50320000     -36.38130000     -71.31320000
C      -46.39440000     -35.19820000     -73.05640000
C      -46.29270000     -36.52910000     -73.54890000
S      -47.89580000     -36.35510000     -69.60100000
S      -47.01150000     -37.63390000     -72.40620000
H      -45.66100000     -36.86700000     -74.44070000
