40
Properties=species:S:1:pos:R:3 #=T CELL(abcABC):=T 1.889726e+02=T 90.00000=T Traj:=T positionsangstrom=T Step:=T 0=T Bead:=T pbc="F F F"
C      -41.97740000     -33.29740000     -70.62830000
C      -42.15370000     -32.15390000     -71.39810000
C      -42.73770000     -30.96510000     -70.88610000
C      -43.40480000     -31.04440000     -69.68670000
C      -43.29690000     -32.17990000     -68.92240000
C      -42.57640000     -33.26750000     -69.36950000
H      -41.33290000     -34.09660000     -70.97020000
H      -42.87050000     -30.06170000     -71.48310000
H      -43.87800000     -32.28270000     -67.98370000
H      -42.50880000     -34.07070000     -68.62520000
C      -44.29200000     -30.01720000     -69.17690000
H      -43.76280000     -29.05250000     -68.98170000
H      -44.77340000     -30.35600000     -68.24910000
C      -41.89370000     -32.08500000     -72.92280000
H      -41.62110000     -31.02200000     -73.08030000
H      -40.99070000     -32.63530000     -73.30020000
S      -45.64540000     -29.78410000     -70.44170000
S      -43.33830000     -32.34070000     -74.02900000
C      -46.54800000     -31.36450000     -69.98500000
H      -46.16860000     -31.64970000     -68.98650000
H      -47.64580000     -31.14830000     -69.98310000
C      -43.95010000     -33.89340000     -73.17650000
H      -43.87180000     -33.67840000     -72.15320000
H      -43.21250000     -34.62860000     -73.47240000
C      -45.39460000     -34.27750000     -73.69670000
H      -45.93130000     -33.31200000     -73.89800000
H      -45.22760000     -34.71150000     -74.70230000
C      -46.17590000     -32.49530000     -70.96500000
H      -45.07370000     -32.83020000     -70.87100000
H      -46.29560000     -32.19730000     -72.01170000
C      -46.91000000     -33.83540000     -70.74260000
C      -47.68170000     -34.05780000     -69.57290000
C      -46.83360000     -35.01390000     -71.59250000
H      -47.70290000     -33.27700000     -68.80010000
C      -47.67040000     -36.02230000     -71.14190000
C      -46.18750000     -35.24860000     -72.88270000
C      -46.60240000     -36.49600000     -73.32010000
S      -48.46720000     -35.68230000     -69.66100000
S      -47.75190000     -37.31190000     -72.35160000
H      -46.36240000     -36.79990000     -74.37700000
