40
Properties=species:S:1:pos:R:3 #=T CELL(abcABC):=T 1.889726e+02=T 90.00000=T Traj:=T positionsangstrom=T Step:=T 0=T Bead:=T pbc="F F F"
C      -41.83930000     -33.38550000     -70.53160000
C      -41.99120000     -32.27930000     -71.45200000
C      -42.70210000     -31.19590000     -70.96760000
C      -43.24140000     -31.11250000     -69.61610000
C      -42.97680000     -32.16190000     -68.69680000
C      -42.24200000     -33.27030000     -69.20640000
H      -41.31320000     -34.30990000     -70.82480000
H      -43.07170000     -30.43280000     -71.67680000
H      -43.34170000     -32.15040000     -67.69400000
H      -41.90750000     -34.05060000     -68.55500000
C      -44.17250000     -29.96560000     -69.19080000
H      -43.63930000     -29.02110000     -69.38780000
H      -44.40180000     -29.99010000     -68.13770000
C      -41.61940000     -32.49670000     -72.85440000
H      -40.91040000     -31.83770000     -73.37620000
H      -41.19180000     -33.49350000     -72.96310000
S      -45.75780000     -29.69310000     -70.16230000
S      -43.11500000     -32.68620000     -74.07030000
C      -46.83600000     -31.23220000     -70.00650000
H      -46.65700000     -31.53280000     -68.94730000
H      -47.85530000     -30.86150000     -70.22300000
C      -44.07590000     -33.99080000     -73.35120000
H      -44.18870000     -33.95880000     -72.25380000
H      -43.55060000     -34.89120000     -73.57600000
C      -45.49510000     -34.16060000     -73.89930000
H      -46.08270000     -33.18730000     -73.87370000
H      -45.45990000     -34.47920000     -74.96430000
C      -46.34470000     -32.31960000     -70.95010000
H      -45.27960000     -32.43780000     -70.63100000
H      -46.34700000     -31.96400000     -72.00240000
C      -47.17600000     -33.62870000     -70.86230000
C      -48.16650000     -33.88140000     -69.93230000
C      -46.92650000     -34.81850000     -71.70250000
H      -48.59640000     -33.18070000     -69.25850000
C      -47.68130000     -35.91480000     -71.22180000
C      -46.20470000     -35.16470000     -72.98870000
C      -46.57280000     -36.42400000     -73.29740000
S      -48.76080000     -35.49830000     -69.82370000
S      -47.55330000     -37.32940000     -72.16090000
H      -46.20800000     -36.94690000     -74.16650000
