40
Properties=species:S:1:pos:R:3 #=T CELL(abcABC):=T 1.889726e+02=T 90.00000=T Traj:=T positionsangstrom=T Step:=T 0=T Bead:=T pbc="F F F"
C      -42.93470000     -35.26490000     -73.64630000
C      -43.56820000     -35.94250000     -72.56140000
C      -44.90700000     -36.30850000     -72.65380000
C      -45.60260000     -35.88690000     -73.73460000
C      -44.99250000     -35.25000000     -74.83870000
C      -43.62340000     -34.89890000     -74.77250000
H      -41.82680000     -35.19190000     -73.55830000
H      -45.23260000     -37.03860000     -71.88320000
H      -45.64530000     -34.90160000     -75.62680000
H      -43.20950000     -34.53900000     -75.67850000
C      -47.08970000     -36.03050000     -73.83100000
H      -47.59690000     -36.45750000     -72.93630000
H      -47.50110000     -36.67710000     -74.63940000
C      -42.69760000     -36.29470000     -71.36760000
H      -42.99240000     -37.23730000     -70.99070000
H      -41.61080000     -36.32660000     -71.65190000
S      -47.94620000     -34.40940000     -74.19010000
S      -43.02270000     -35.18000000     -69.92390000
C      -48.11010000     -33.53550000     -72.51300000
H      -48.75290000     -32.68150000     -72.68980000
H      -48.56260000     -34.25720000     -71.88260000
C      -42.42270000     -33.47690000     -70.63660000
H      -41.69330000     -33.63500000     -71.47310000
H      -41.80150000     -33.03800000     -69.88950000
C      -43.53500000     -32.61330000     -71.19350000
H      -43.11650000     -31.85520000     -71.96260000
H      -44.15770000     -33.19860000     -71.88030000
C      -46.79260000     -33.07200000     -72.03460000
H      -46.11640000     -32.60210000     -72.84490000
H      -46.12500000     -33.89800000     -71.79870000
C      -46.83870000     -32.11620000     -70.81610000
C      -48.00090000     -31.61380000     -70.26500000
C      -45.67300000     -31.60010000     -70.08500000
H      -48.99050000     -31.76520000     -70.58010000
C      -46.00450000     -30.76260000     -68.99810000
C      -44.23410000     -31.89060000     -70.10690000
C      -43.52040000     -31.17450000     -69.18260000
S      -47.75010000     -30.69190000     -68.72540000
S      -44.62890000     -30.18440000     -68.11630000
H      -42.52750000     -31.17590000     -68.86610000
