40
Properties=species:S:1:pos:R:3 #=T CELL(abcABC):=T 1.889726e+02=T 90.00000=T Traj:=T positionsangstrom=T Step:=T 0=T Bead:=T pbc="F F F"
C      -42.85600000     -35.23020000     -74.05960000
C      -43.35860000     -35.88850000     -72.93720000
C      -44.80650000     -35.99170000     -72.81630000
C      -45.65950000     -35.59020000     -73.85580000
C      -45.09700000     -35.01330000     -74.99920000
C      -43.70560000     -34.83740000     -75.06090000
H      -41.78290000     -35.03100000     -74.21640000
H      -45.13890000     -36.40930000     -71.95840000
H      -45.74160000     -34.84450000     -75.88100000
H      -43.22140000     -34.45270000     -75.94250000
C      -47.08340000     -35.99650000     -73.67140000
H      -47.21410000     -36.54730000     -72.77690000
H      -47.37810000     -36.65530000     -74.47220000
C      -42.54790000     -36.25590000     -71.76680000
H      -42.75700000     -37.31150000     -71.54320000
H      -41.44660000     -36.21360000     -72.00190000
S      -48.38080000     -34.71020000     -73.62980000
S      -42.88110000     -35.23200000     -70.13920000
C      -48.13930000     -33.69450000     -72.02910000
H      -48.98910000     -32.97280000     -71.98190000
H      -48.19370000     -34.39840000     -71.13850000
C      -42.41430000     -33.59550000     -70.73650000
H      -41.62070000     -33.85590000     -71.52680000
H      -41.80740000     -33.12900000     -70.01500000
C      -43.49700000     -32.67890000     -71.21380000
H      -42.94230000     -31.96410000     -71.75040000
H      -44.15240000     -33.14780000     -72.00520000
C      -46.85240000     -32.85500000     -72.07700000
H      -46.79020000     -32.30680000     -73.02460000
H      -45.99000000     -33.55970000     -72.18820000
C      -46.85370000     -31.93330000     -70.84730000
C      -47.97930000     -31.33330000     -70.21140000
C      -45.65950000     -31.62730000     -70.05200000
H      -49.04910000     -31.47670000     -70.55590000
C      -45.98660000     -30.91230000     -68.87820000
C      -44.29000000     -31.88860000     -70.13930000
C      -43.51280000     -31.42500000     -69.06390000
S      -47.63630000     -30.32830000     -68.83740000
S      -44.56870000     -30.58330000     -67.87250000
H      -42.41630000     -31.59190000     -68.97850000
