40
Properties=species:S:1:pos:R:3 #=T CELL(abcABC):=T 1.889726e+02=T 90.00000=T Traj:=T positionsangstrom=T Step:=T 0=T Bead:=T pbc="F F F"
C      -41.58060000     -33.30050000     -70.55330000
C      -41.92900000     -32.65730000     -71.73960000
C      -42.52260000     -31.37230000     -71.61080000
C      -42.85920000     -30.87160000     -70.37760000
C      -42.42200000     -31.52580000     -69.13800000
C      -41.79670000     -32.75910000     -69.22970000
H      -40.95870000     -34.27510000     -70.51230000
H      -42.88780000     -30.84130000     -72.50100000
H      -42.60230000     -31.03730000     -68.25120000
H      -41.36600000     -33.24230000     -68.38280000
C      -43.72900000     -29.67360000     -70.28440000
H      -43.17800000     -28.94540000     -70.92390000
H      -43.81720000     -29.30030000     -69.31100000
C      -41.68610000     -33.08470000     -73.14520000
H      -41.11970000     -32.29360000     -73.67870000
H      -41.11630000     -34.03020000     -73.25520000
S      -45.30730000     -29.81850000     -71.09170000
S      -43.30010000     -33.41930000     -73.99280000
C      -45.93030000     -31.47150000     -70.61600000
H      -45.18440000     -32.26850000     -70.54880000
H      -46.52510000     -31.30230000     -69.75720000
C      -44.05020000     -34.43020000     -72.65930000
H      -44.19290000     -33.81680000     -71.77520000
H      -43.47100000     -35.34310000     -72.48710000
C      -45.40990000     -34.83160000     -73.25990000
H      -45.84680000     -33.93680000     -73.59990000
H      -45.33640000     -35.49150000     -74.07460000
C      -47.02510000     -31.98040000     -71.64400000
H      -46.51150000     -32.16440000     -72.64690000
H      -47.74120000     -31.24760000     -71.94980000
C      -47.63950000     -33.29940000     -71.11050000
C      -48.71760000     -33.12810000     -70.30660000
C      -47.36900000     -34.73270000     -71.46930000
H      -49.15740000     -32.17470000     -69.84620000
C      -48.09520000     -35.63830000     -70.72590000
C      -46.38400000     -35.42110000     -72.23490000
C      -46.38670000     -36.79790000     -71.93500000
S      -49.33670000     -34.76950000     -69.69880000
S      -47.62100000     -37.34390000     -70.83620000
H      -45.67060000     -37.51340000     -72.38770000
