40
Properties=species:S:1:pos:R:3 #=T CELL(abcABC):=T 1.889726e+02=T 90.00000=T Traj:=T positionsangstrom=T Step:=T 0=T Bead:=T pbc="F F F"
C      -43.79320000     -29.44950000     -70.89760000
C      -44.22020000     -30.11360000     -72.06430000
C      -45.60990000     -30.40490000     -72.07330000
C      -46.50300000     -30.04490000     -71.04400000
C      -46.00460000     -29.27900000     -69.99270000
C      -44.66440000     -28.99490000     -69.89120000
H      -42.73830000     -29.09020000     -70.73780000
H      -46.05490000     -30.92550000     -72.84350000
H      -46.64050000     -29.10210000     -69.12780000
H      -44.27100000     -28.52160000     -69.01840000
C      -47.93140000     -30.43910000     -71.11100000
H      -48.30800000     -30.83100000     -72.05080000
H      -48.62130000     -29.63130000     -70.71290000
C      -43.34930000     -30.56340000     -73.24070000
H      -43.89930000     -30.30260000     -74.10780000
H      -42.48490000     -29.91590000     -73.22310000
S      -48.30400000     -31.73570000     -69.75980000
S      -42.85310000     -32.33520000     -73.28580000
C      -47.65250000     -33.24490000     -70.61280000
H      -48.39810000     -33.85620000     -71.03030000
H      -46.92250000     -32.94180000     -71.39160000
C      -42.73230000     -32.67980000     -71.49240000
H      -42.57440000     -31.67800000     -70.94740000
H      -41.89180000     -33.28950000     -71.20940000
C      -44.04890000     -33.33660000     -70.97590000
H      -44.20860000     -33.17380000     -69.84180000
H      -44.91070000     -32.75130000     -71.39250000
C      -47.00980000     -34.24870000     -69.65690000
H      -47.65830000     -34.46160000     -68.77010000
H      -46.11660000     -33.83180000     -69.13570000
C      -46.58720000     -35.53430000     -70.36820000
C      -47.30270000     -36.69830000     -70.35210000
C      -45.34930000     -35.64010000     -71.04900000
H      -48.30060000     -36.74460000     -69.93570000
C      -45.17820000     -36.92440000     -71.58860000
C      -44.15940000     -34.81870000     -71.32300000
C      -43.14640000     -35.48680000     -72.00120000
S      -46.58010000     -37.94170000     -71.36900000
S      -43.57520000     -37.15350000     -72.32120000
H      -42.27420000     -34.94380000     -72.36750000
