40
Properties=species:S:1:pos:R:3 #=T CELL(abcABC):=T 1.889726e+02=T 90.00000=T Traj:=T positionsangstrom=T Step:=T 0=T Bead:=T pbc="F F F"
C      -40.88530000     -33.05490000     -70.51830000
C      -41.64280000     -32.65510000     -71.64860000
C      -42.50270000     -31.62110000     -71.54070000
C      -42.85220000     -31.08970000     -70.25380000
C      -42.13820000     -31.54770000     -69.16920000
C      -41.12520000     -32.55860000     -69.27180000
H      -40.11380000     -33.81650000     -70.65110000
H      -43.09470000     -31.43050000     -72.43410000
H      -42.41340000     -31.11980000     -68.15130000
H      -40.61450000     -33.03510000     -68.50330000
C      -43.90650000     -30.01350000     -70.02220000
H      -43.48210000     -29.02100000     -70.06470000
H      -44.24130000     -30.16690000     -69.01770000
C      -41.43840000     -33.35550000     -72.97450000
H      -40.87060000     -32.69740000     -73.67830000
H      -40.87890000     -34.30840000     -72.81090000
S      -45.33930000     -30.03360000     -71.17990000
S      -42.91960000     -33.71730000     -73.99680000
C      -46.19870000     -31.61890000     -70.56400000
H      -45.63380000     -32.50140000     -70.94260000
H      -46.28260000     -31.59280000     -69.47730000
C      -44.14800000     -34.23960000     -72.71430000
H      -43.85160000     -33.85750000     -71.76160000
H      -44.00720000     -35.28840000     -72.56320000
C      -45.63840000     -33.96530000     -73.08330000
H      -45.91780000     -32.92060000     -73.10670000
H      -45.66920000     -34.29740000     -74.16780000
C      -47.52190000     -31.81680000     -71.08980000
H      -47.55480000     -31.46010000     -72.15420000
H      -48.14050000     -31.12130000     -70.55380000
C      -48.08460000     -33.23010000     -70.76400000
C      -49.19540000     -33.46050000     -70.02570000
C      -47.51970000     -34.48310000     -71.22190000
H      -49.72340000     -32.73010000     -69.49670000
C      -48.14400000     -35.55370000     -70.67760000
C      -46.49030000     -34.85700000     -72.22110000
C      -46.48780000     -36.18430000     -72.46840000
S      -49.54450000     -35.16710000     -69.80650000
S      -47.56370000     -37.09510000     -71.41550000
H      -45.87820000     -36.70800000     -73.14580000
