40
Properties=species:S:1:pos:R:3 #=T CELL(abcABC):=T 1.889726e+02=T 90.00000=T Traj:=T positionsangstrom=T Step:=T 0=T Bead:=T pbc="F F F"
C      -41.52400000     -33.25360000     -70.53580000
C      -41.79260000     -32.52790000     -71.70870000
C      -42.44920000     -31.34350000     -71.63760000
C      -42.84810000     -30.85040000     -70.36680000
C      -42.48980000     -31.51600000     -69.16080000
C      -41.84150000     -32.75870000     -69.29210000
H      -41.15280000     -34.31880000     -70.56670000
H      -42.79060000     -30.81700000     -72.49710000
H      -42.87280000     -31.17760000     -68.23740000
H      -41.61160000     -33.39310000     -68.45690000
C      -43.71420000     -29.62380000     -70.27500000
H      -43.22560000     -28.76680000     -70.83960000
H      -43.79750000     -29.26780000     -69.22280000
C      -41.65920000     -33.32710000     -73.02170000
H      -40.89660000     -32.86250000     -73.64100000
H      -41.27550000     -34.28530000     -72.78760000
S      -45.38490000     -29.89720000     -71.07540000
S      -43.22470000     -33.39490000     -74.00260000
C      -45.88560000     -31.54040000     -70.69800000
H      -45.03900000     -32.21940000     -70.47600000
H      -46.31790000     -31.40940000     -69.70280000
C      -44.30210000     -34.31050000     -72.80980000
H      -44.68130000     -33.72900000     -71.96080000
H      -43.61440000     -34.95700000     -72.29130000
C      -45.45870000     -35.12000000     -73.37610000
H      -46.06630000     -34.55880000     -74.18840000
H      -44.95410000     -35.98990000     -73.92300000
C      -46.73930000     -32.10930000     -71.81820000
H      -46.03770000     -32.38200000     -72.59180000
H      -47.36460000     -31.29450000     -72.29710000
C      -47.53380000     -33.27460000     -71.23690000
C      -48.57750000     -33.11600000     -70.36370000
C      -47.30170000     -34.76400000     -71.44030000
H      -48.91620000     -32.08940000     -70.01700000
C      -48.12130000     -35.53050000     -70.63760000
C      -46.45290000     -35.61640000     -72.33020000
C      -46.59910000     -36.94760000     -71.97120000
S      -49.20970000     -34.54240000     -69.65450000
S      -47.83590000     -37.24560000     -70.63640000
H      -46.08580000     -37.72890000     -72.53320000
