40
Properties=species:S:1:pos:R:3 #=T CELL(abcABC):=T 1.889726e+02=T 90.00000=T Traj:=T positionsangstrom=T Step:=T 0=T Bead:=T pbc="F F F"
C      -41.11670000     -33.17400000     -70.63030000
C      -41.71360000     -32.62310000     -71.72660000
C      -42.56580000     -31.51420000     -71.56670000
C      -42.86110000     -31.02730000     -70.30880000
C      -42.25730000     -31.64110000     -69.19210000
C      -41.37830000     -32.65100000     -69.33370000
H      -40.55060000     -34.02120000     -70.81310000
H      -42.94950000     -31.05820000     -72.45650000
H      -42.60440000     -31.24210000     -68.13320000
H      -40.86970000     -33.07140000     -68.47100000
C      -43.84470000     -29.91130000     -70.10920000
H      -43.32640000     -28.94250000     -70.36090000
H      -44.06950000     -29.87990000     -69.04170000
C      -41.41190000     -33.07970000     -73.08520000
H      -40.88010000     -32.39870000     -73.73300000
H      -40.70840000     -33.87070000     -72.88120000
S      -45.35330000     -30.08950000     -71.16490000
S      -42.96190000     -33.66050000     -73.92930000
C      -46.16850000     -31.61560000     -70.52050000
H      -45.43810000     -32.38420000     -70.67830000
H      -46.50230000     -31.54920000     -69.47030000
C      -43.96460000     -34.38730000     -72.59880000
H      -43.79810000     -33.88000000     -71.60560000
H      -43.68710000     -35.48160000     -72.52800000
C      -45.46150000     -34.15860000     -72.98510000
H      -45.62310000     -33.14180000     -72.74900000
H      -45.72080000     -34.35480000     -74.01820000
C      -47.38350000     -31.95010000     -71.34990000
H      -47.15380000     -31.75780000     -72.38340000
H      -48.19000000     -31.14660000     -71.18310000
C      -48.11600000     -33.24800000     -71.01850000
C      -49.09320000     -33.36110000     -70.06710000
C      -47.58670000     -34.50450000     -71.43960000
H      -49.63900000     -32.50810000     -69.65870000
C      -48.24560000     -35.52900000     -70.79370000
C      -46.46040000     -34.95900000     -72.21830000
C      -46.39360000     -36.30520000     -72.22010000
S      -49.42950000     -35.02940000     -69.71390000
S      -47.61350000     -37.12200000     -71.23420000
H      -45.71660000     -36.95370000     -72.71160000
