40
Properties=species:S:1:pos:R:3 #=T CELL(abcABC):=T 1.889726e+02=T 90.00000=T Traj:=T positionsangstrom=T Step:=T 0=T Bead:=T pbc="F F F"
C      -41.32220000     -33.14460000     -70.64360000
C      -41.82000000     -32.46500000     -71.77700000
C      -42.60560000     -31.35480000     -71.60850000
C      -42.93770000     -30.95170000     -70.30900000
C      -42.49160000     -31.59630000     -69.22420000
C      -41.66960000     -32.69880000     -69.39400000
H      -40.74660000     -34.04690000     -70.87080000
H      -43.03810000     -30.75420000     -72.43600000
H      -42.77560000     -31.26010000     -68.21850000
H      -41.49270000     -33.28290000     -68.45610000
C      -43.84570000     -29.75710000     -70.08000000
H      -43.37120000     -28.79350000     -70.26710000
H      -44.20850000     -29.70430000     -69.00910000
C      -41.51570000     -33.04310000     -73.13980000
H      -41.04670000     -32.24550000     -73.72010000
H      -40.86210000     -33.89190000     -73.10600000
S      -45.38640000     -29.77500000     -71.16760000
S      -43.09390000     -33.54020000     -74.03470000
C      -45.94470000     -31.41080000     -70.55190000
H      -45.06810000     -32.12130000     -70.51730000
H      -46.25510000     -31.35370000     -69.51350000
C      -43.96960000     -34.64190000     -72.79120000
H      -43.75660000     -34.23240000     -71.77470000
H      -43.40380000     -35.59840000     -72.81920000
C      -45.44470000     -34.69400000     -73.16800000
H      -45.85620000     -33.68300000     -73.38700000
H      -45.54500000     -35.19550000     -74.16390000
C      -47.07860000     -31.99660000     -71.45970000
H      -46.55180000     -32.30930000     -72.40930000
H      -47.83610000     -31.23620000     -71.67760000
C      -47.69490000     -33.29990000     -70.94790000
C      -48.86120000     -33.27410000     -70.22210000
C      -47.20070000     -34.68130000     -71.16910000
H      -49.51400000     -32.33670000     -70.03260000
C      -48.06260000     -35.66680000     -70.53520000
C      -46.31060000     -35.31620000     -72.12390000
C      -46.48420000     -36.67150000     -72.07260000
S      -49.41530000     -34.85110000     -69.73220000
S      -47.75220000     -37.29770000     -71.01540000
H      -45.97300000     -37.30550000     -72.79860000
