40
Properties=species:S:1:pos:R:3 #=T CELL(abcABC):=T 1.889726e+02=T 90.00000=T Traj:=T positionsangstrom=T Step:=T 0=T Bead:=T pbc="F F F"
C      -41.39490000     -33.22630000     -70.53590000
C      -41.91350000     -32.57700000     -71.69870000
C      -42.71210000     -31.48360000     -71.56620000
C      -42.90650000     -30.87780000     -70.27280000
C      -42.30430000     -31.47610000     -69.12960000
C      -41.58280000     -32.67900000     -69.28330000
H      -40.84390000     -34.11690000     -70.56020000
H      -43.25980000     -31.00540000     -72.38060000
H      -42.32950000     -31.04360000     -68.08190000
H      -41.25770000     -33.28270000     -68.39370000
C      -43.80200000     -29.67270000     -70.22250000
H      -43.35200000     -28.86200000     -70.63770000
H      -44.06090000     -29.43560000     -69.16500000
C      -41.69510000     -33.16800000     -73.03940000
H      -41.28040000     -32.45110000     -73.78690000
H      -41.06890000     -34.07540000     -73.02140000
S      -45.36120000     -29.75100000     -71.12070000
S      -43.27640000     -33.62300000     -73.90260000
C      -45.76670000     -31.57520000     -70.88860000
H      -44.87430000     -32.14930000     -70.92590000
H      -46.18410000     -31.71840000     -69.85010000
C      -44.17060000     -34.62180000     -72.63480000
H      -44.32690000     -33.99600000     -71.74320000
H      -43.52920000     -35.50740000     -72.47650000
C      -45.47120000     -35.03770000     -73.28840000
H      -45.91960000     -34.15660000     -73.69040000
H      -45.39500000     -35.75440000     -74.03880000
C      -46.70150000     -32.17460000     -71.94470000
H      -46.11210000     -32.58840000     -72.64700000
H      -47.48070000     -31.44480000     -72.18790000
C      -47.51900000     -33.32770000     -71.26140000
C      -48.50960000     -33.04730000     -70.30780000
C      -47.23950000     -34.71500000     -71.38710000
H      -48.97900000     -32.06070000     -70.08500000
C      -48.10540000     -35.46310000     -70.60000000
C      -46.48530000     -35.51700000     -72.26830000
C      -46.67680000     -36.85640000     -71.95440000
S      -49.15160000     -34.50830000     -69.62550000
S      -47.99820000     -37.20800000     -70.87190000
H      -46.22290000     -37.67630000     -72.45550000
