40
Properties=species:S:1:pos:R:3 #=T CELL(abcABC):=T 1.889726e+02=T 90.00000=T Traj:=T positionsangstrom=T Step:=T 0=T Bead:=T pbc="F F F"
C      -43.01400000     -30.90670000     -72.34620000
C      -43.83740000     -31.27440000     -73.38990000
C      -43.77740000     -32.55740000     -73.85360000
C      -42.86410000     -33.43630000     -73.32330000
C      -42.03140000     -33.10840000     -72.21350000
C      -42.07500000     -31.79560000     -71.86150000
H      -43.02570000     -29.92740000     -71.84500000
H      -44.40210000     -32.79050000     -74.74640000
H      -41.45540000     -33.85280000     -71.69880000
H      -41.54090000     -31.41710000     -70.96810000
C      -42.83990000     -34.86490000     -73.92940000
H      -41.94350000     -35.33090000     -73.67480000
H      -42.90820000     -34.68790000     -74.97660000
C      -44.75780000     -30.33180000     -74.04720000
H      -44.70450000     -29.38980000     -73.52060000
H      -44.48770000     -30.10610000     -75.17610000
S      -44.37770000     -35.84120000     -73.68960000
S      -46.61410000     -30.75790000     -73.81290000
C      -44.67480000     -35.78480000     -71.83820000
H      -44.16740000     -36.54970000     -71.21460000
H      -44.11490000     -34.92420000     -71.57570000
C      -46.51200000     -31.09210000     -72.02350000
H      -47.46980000     -30.78290000     -71.70190000
H      -45.82430000     -30.34700000     -71.57510000
C      -46.17750000     -32.48840000     -71.65470000
H      -46.88170000     -33.09660000     -72.19980000
H      -45.13700000     -32.73400000     -71.86520000
C      -46.16190000     -35.81640000     -71.55180000
H      -46.63280000     -36.71500000     -71.76420000
H      -46.60060000     -35.11710000     -72.29520000
C      -46.44910000     -35.42580000     -70.12700000
C      -46.53510000     -36.35320000     -69.17120000
C      -46.51020000     -34.07960000     -69.63910000
H      -46.64220000     -37.45440000     -69.28210000
C      -46.63430000     -34.06820000     -68.27180000
C      -46.43450000     -32.73410000     -70.22600000
C      -46.60860000     -31.83070000     -69.21160000
S      -46.70480000     -35.67640000     -67.56610000
S      -46.73280000     -32.49970000     -67.63870000
H      -46.72650000     -30.73450000     -69.34050000
