40
Properties=species:S:1:pos:R:3 #=T CELL(abcABC):=T 1.889726e+02=T 90.00000=T Traj:=T positionsangstrom=T Step:=T 0=T Bead:=T pbc="F F F"
C      -41.69320000     -33.36010000     -69.89110000
C      -41.81660000     -32.93700000     -71.20580000
C      -42.43500000     -31.73270000     -71.43450000
C      -42.92830000     -30.88630000     -70.42660000
C      -42.80410000     -31.37230000     -69.12950000
C      -42.11700000     -32.55280000     -68.85540000
H      -41.10280000     -34.23330000     -69.56880000
H      -42.69710000     -31.46650000     -72.44970000
H      -43.26900000     -30.81420000     -68.30430000
H      -41.89600000     -32.80930000     -67.84210000
C      -43.64810000     -29.61250000     -70.83340000
H      -43.07000000     -29.05800000     -71.59950000
H      -43.87770000     -28.98910000     -69.94930000
C      -41.32480000     -33.79080000     -72.39360000
H      -40.40980000     -33.37830000     -72.88660000
H      -41.16640000     -34.77170000     -72.01410000
S      -45.22290000     -29.97900000     -71.82220000
S      -42.67710000     -34.07540000     -73.65970000
C      -45.93820000     -31.43640000     -71.03480000
H      -45.21500000     -32.26340000     -71.13760000
H      -46.07150000     -31.31090000     -69.96430000
C      -44.01870000     -34.71260000     -72.67380000
H      -43.94900000     -34.19660000     -71.68150000
H      -43.83630000     -35.70690000     -72.36580000
C      -45.48740000     -34.45450000     -73.26560000
H      -45.70460000     -33.43180000     -73.53830000
H      -45.40030000     -34.88480000     -74.24950000
C      -47.24800000     -31.79830000     -71.73550000
H      -47.05690000     -32.03030000     -72.76830000
H      -47.84180000     -30.92480000     -71.64980000
C      -47.77840000     -33.06780000     -71.04470000
C      -48.55480000     -33.04130000     -69.90250000
C      -47.45230000     -34.44370000     -71.45360000
H      -48.81410000     -32.09570000     -69.36980000
C      -48.21480000     -35.34350000     -70.70600000
C      -46.58380000     -35.08490000     -72.40060000
C      -46.80030000     -36.45520000     -72.39280000
S      -49.11670000     -34.60810000     -69.40300000
S      -48.02680000     -37.01470000     -71.25180000
H      -46.27860000     -37.13440000     -73.11200000
