40
Properties=species:S:1:pos:R:3 #=T CELL(abcABC):=T 1.889726e+02=T 90.00000=T Traj:=T positionsangstrom=T Step:=T 0=T Bead:=T pbc="F F F"
C      -41.64550000     -33.18730000     -69.83080000
C      -41.93620000     -32.95760000     -71.19990000
C      -42.45780000     -31.67030000     -71.59070000
C      -42.72870000     -30.69800000     -70.64150000
C      -42.40090000     -30.88230000     -69.30830000
C      -41.88730000     -32.14570000     -68.92380000
H      -41.16140000     -33.98870000     -69.37870000
H      -42.73700000     -31.52720000     -72.65280000
H      -42.59060000     -30.18080000     -68.50100000
H      -41.66340000     -32.29440000     -67.84460000
C      -43.46440000     -29.47390000     -71.07250000
H      -43.03280000     -29.07030000     -72.01220000
H      -43.47510000     -28.65280000     -70.37540000
C      -41.61780000     -33.96160000     -72.35200000
H      -40.66970000     -33.64370000     -72.86140000
H      -41.45640000     -34.92820000     -71.95930000
S      -45.14050000     -29.98250000     -71.80550000
S      -42.90340000     -34.05860000     -73.63040000
C      -45.74100000     -31.53100000     -70.80500000
H      -45.09440000     -32.41850000     -70.85100000
H      -45.77000000     -31.22600000     -69.74310000
C      -44.21860000     -34.58670000     -72.49370000
H      -44.04720000     -34.21420000     -71.43730000
H      -44.16440000     -35.65210000     -72.31440000
C      -45.60750000     -34.31210000     -73.11640000
H      -45.82060000     -33.22270000     -73.15670000
H      -45.59520000     -34.63420000     -74.18650000
C      -47.12040000     -31.83890000     -71.29440000
H      -47.12380000     -31.79330000     -72.42440000
H      -47.79270000     -30.96600000     -70.96900000
C      -47.80560000     -33.22510000     -70.84730000
C      -48.76460000     -33.28500000     -69.87400000
C      -47.47960000     -34.50190000     -71.33430000
H      -49.21060000     -32.37700000     -69.45430000
C      -48.23170000     -35.52630000     -70.77900000
C      -46.60730000     -35.04520000     -72.37010000
C      -46.66820000     -36.44690000     -72.46040000
S      -49.35250000     -34.90890000     -69.57840000
S      -47.82850000     -37.08410000     -71.34050000
H      -45.96810000     -36.97160000     -73.17820000
