40
Properties=species:S:1:pos:R:3 #=T CELL(abcABC):=T 1.889726e+02=T 90.00000=T Traj:=T positionsangstrom=T Step:=T 0=T Bead:=T pbc="F F F"
C      -42.72730000     -31.10250000     -72.22960000
C      -43.63740000     -31.22490000     -73.25160000
C      -43.64960000     -32.43060000     -73.96790000
C      -42.84380000     -33.50530000     -73.59040000
C      -42.06680000     -33.38240000     -72.45790000
C      -41.98780000     -32.17540000     -71.81230000
H      -42.72700000     -30.15900000     -71.68320000
H      -44.14150000     -32.46470000     -74.90990000
H      -41.38140000     -34.15480000     -72.07980000
H      -41.43630000     -32.24700000     -70.88560000
C      -42.91960000     -34.76260000     -74.25680000
H      -42.08300000     -35.43210000     -73.89510000
H      -42.74130000     -34.66910000     -75.30680000
C      -44.68390000     -30.11140000     -73.55640000
H      -44.66960000     -29.31460000     -72.74270000
H      -44.36590000     -29.71730000     -74.45220000
S      -44.56430000     -35.66140000     -73.85770000
S      -46.36710000     -30.66470000     -73.74600000
C      -44.61110000     -35.42350000     -72.03920000
H      -43.85860000     -36.00080000     -71.51620000
H      -44.44430000     -34.35970000     -71.85300000
C      -46.86230000     -31.05290000     -72.01080000
H      -48.00800000     -30.90900000     -71.86860000
H      -46.33500000     -30.41230000     -71.33350000
C      -46.63450000     -32.48290000     -71.70360000
H      -47.38020000     -33.03350000     -72.19970000
H      -45.66950000     -32.87270000     -71.91600000
C      -46.06680000     -35.77560000     -71.59320000
H      -46.27830000     -36.87310000     -71.62330000
H      -46.74550000     -35.24850000     -72.18310000
C      -46.31470000     -35.43950000     -70.08400000
C      -46.26820000     -36.40600000     -69.11100000
C      -46.65070000     -34.14020000     -69.60890000
H      -46.04440000     -37.43020000     -69.27370000
C      -46.69570000     -34.13470000     -68.17260000
C      -46.75080000     -32.81040000     -70.16040000
C      -46.92760000     -31.87670000     -69.15260000
S      -46.47940000     -35.76250000     -67.50140000
S      -46.84750000     -32.57180000     -67.57850000
H      -46.98710000     -30.87380000     -69.50440000
