40
Properties=species:S:1:pos:R:3 #=T CELL(abcABC):=T 1.889726e+02=T 90.00000=T Traj:=T positionsangstrom=T Step:=T 0=T Bead:=T pbc="F F F"
C      -41.41970000     -33.08760000     -69.97720000
C      -41.76800000     -32.89150000     -71.33230000
C      -42.41120000     -31.65220000     -71.63140000
C      -42.81660000     -30.73530000     -70.67770000
C      -42.42510000     -30.89810000     -69.30000000
C      -41.74240000     -32.09930000     -69.01260000
H      -41.05980000     -34.01060000     -69.59200000
H      -42.76030000     -31.56900000     -72.67830000
H      -42.58690000     -30.18990000     -68.43910000
H      -41.41430000     -32.22900000     -68.00770000
C      -43.69600000     -29.55630000     -71.10390000
H      -43.17890000     -28.96420000     -71.87030000
H      -43.82560000     -28.90130000     -70.24410000
C      -41.33930000     -33.85000000     -72.37870000
H      -40.36190000     -33.65960000     -72.75170000
H      -41.23850000     -34.83710000     -71.80620000
S      -45.35140000     -29.98140000     -71.78820000
S      -42.57570000     -34.00930000     -73.73080000
C      -45.89420000     -31.37910000     -70.72250000
H      -45.23950000     -32.24370000     -70.69060000
H      -45.96930000     -30.98530000     -69.69120000
C      -44.08420000     -34.70520000     -72.63970000
H      -44.10300000     -34.19760000     -71.68230000
H      -43.83180000     -35.75780000     -72.61310000
C      -45.51580000     -34.48570000     -73.17480000
H      -45.78850000     -33.39160000     -73.13710000
H      -45.66250000     -34.81530000     -74.18320000
C      -47.20710000     -31.90160000     -71.26220000
H      -47.08360000     -32.01830000     -72.29210000
H      -47.99830000     -31.18840000     -71.04500000
C      -47.76230000     -33.26980000     -70.74550000
C      -48.69850000     -33.29740000     -69.73550000
C      -47.47180000     -34.57720000     -71.31150000
H      -48.88790000     -32.36920000     -69.14680000
C      -48.28630000     -35.51550000     -70.71850000
C      -46.53290000     -35.14410000     -72.25400000
C      -46.81170000     -36.52360000     -72.39580000
S      -49.37770000     -34.84840000     -69.47020000
S      -48.10500000     -37.06680000     -71.33830000
H      -46.46260000     -37.00940000     -73.35480000
