40
Properties=species:S:1:pos:R:3 #=T CELL(abcABC):=T 1.889726e+02=T 90.00000=T Traj:=T positionsangstrom=T Step:=T 0=T Bead:=T pbc="F F F"
C      -43.01900000     -30.34210000     -69.82890000
C      -42.72470000     -31.12640000     -70.98050000
C      -43.78510000     -31.13980000     -71.91460000
C      -45.03780000     -30.50190000     -71.66820000
C      -45.29070000     -29.85300000     -70.45610000
C      -44.22830000     -29.73360000     -69.57700000
H      -42.28880000     -30.21170000     -69.09120000
H      -43.76790000     -31.72250000     -72.80700000
H      -46.22150000     -29.42460000     -70.34310000
H      -44.33880000     -29.15830000     -68.66890000
C      -46.03220000     -30.34580000     -72.75690000
H      -45.63280000     -30.74380000     -73.70330000
H      -46.25240000     -29.27700000     -72.97340000
C      -41.35790000     -31.74990000     -71.08570000
H      -40.71950000     -30.96460000     -71.55110000
H      -40.96760000     -31.95130000     -70.02130000
S      -47.65410000     -31.06620000     -72.37220000
S      -41.26130000     -33.29170000     -72.09650000
C      -47.65230000     -32.47680000     -73.62190000
H      -48.67810000     -32.74350000     -73.86540000
H      -47.32660000     -31.98940000     -74.60050000
C      -42.49980000     -34.37440000     -71.20430000
H      -42.82480000     -33.81990000     -70.30250000
H      -41.99550000     -35.25270000     -70.89990000
C      -43.67190000     -34.88210000     -72.07350000
H      -43.97140000     -34.06060000     -72.67040000
H      -43.27110000     -35.65470000     -72.70140000
C      -46.73690000     -33.63750000     -73.30610000
H      -45.75940000     -33.28370000     -73.20240000
H      -46.68590000     -34.28270000     -74.24040000
C      -47.16960000     -34.48390000     -72.08840000
C      -48.48730000     -34.62790000     -71.68170000
C      -46.31330000     -35.32900000     -71.27900000
H      -49.31020000     -34.00830000     -72.09640000
C      -47.00820000     -36.06000000     -70.29520000
C      -44.84810000     -35.48040000     -71.25770000
C      -44.51610000     -36.44130000     -70.31430000
S      -48.72260000     -35.71940000     -70.31910000
S      -45.89490000     -37.03570000     -69.32390000
H      -43.57050000     -36.94060000     -70.20100000
