40
Properties=species:S:1:pos:R:3 #=T CELL(abcABC):=T 1.889726e+02=T 90.00000=T Traj:=T positionsangstrom=T Step:=T 0=T Bead:=T pbc="F F F"
C      -41.71910000     -33.44790000     -70.09620000
C      -41.98080000     -32.98300000     -71.38820000
C      -42.66810000     -31.79650000     -71.49820000
C      -43.12140000     -30.98050000     -70.42070000
C      -42.85840000     -31.54830000     -69.14980000
C      -42.18210000     -32.73430000     -68.99330000
H      -41.25100000     -34.41110000     -69.87500000
H      -42.75810000     -31.31850000     -72.46020000
H      -43.07510000     -31.01950000     -68.25250000
H      -42.13620000     -33.27440000     -68.03770000
C      -43.79440000     -29.65820000     -70.56850000
H      -43.02800000     -29.05400000     -71.04590000
H      -44.05570000     -29.15560000     -69.61580000
C      -41.42610000     -33.76570000     -72.53630000
H      -40.78640000     -33.11470000     -73.15530000
H      -40.91480000     -34.70190000     -72.22500000
S      -45.10450000     -29.76320000     -71.83030000
S      -42.71270000     -34.21430000     -73.70830000
C      -45.98090000     -31.13640000     -70.91400000
H      -45.18850000     -31.81670000     -70.57360000
H      -46.49580000     -30.78370000     -70.02610000
C      -44.00380000     -34.94290000     -72.60100000
H      -43.74240000     -34.50840000     -71.63720000
H      -43.90130000     -36.04210000     -72.45880000
C      -45.34380000     -34.63910000     -73.17220000
H      -45.48620000     -33.59140000     -73.27980000
H      -45.45540000     -35.24010000     -74.13160000
C      -47.01280000     -31.77330000     -71.77360000
H      -46.51040000     -32.06170000     -72.76000000
H      -47.80710000     -31.12250000     -72.06450000
C      -47.64230000     -33.01420000     -71.11540000
C      -48.53560000     -32.87780000     -70.07690000
C      -47.31660000     -34.42820000     -71.39440000
H      -48.85550000     -31.96170000     -69.66670000
C      -48.18740000     -35.27220000     -70.63730000
C      -46.45360000     -35.18330000     -72.29460000
C      -46.74770000     -36.50760000     -72.25790000
S      -49.14010000     -34.44480000     -69.46290000
S      -48.03730000     -37.00010000     -71.10380000
H      -46.20090000     -37.19710000     -72.89280000
