40
Properties=species:S:1:pos:R:3 #=T CELL(abcABC):=T 1.889726e+02=T 90.00000=T Traj:=T positionsangstrom=T Step:=T 0=T Bead:=T pbc="F F F"
C      -41.93270000     -33.81530000     -70.08310000
C      -41.93780000     -33.21580000     -71.32150000
C      -42.51490000     -31.91900000     -71.45220000
C      -43.04820000     -31.17860000     -70.31360000
C      -43.04310000     -31.92080000     -69.14160000
C      -42.47680000     -33.14890000     -68.99690000
H      -41.56010000     -34.86260000     -70.08760000
H      -42.47440000     -31.48580000     -72.45240000
H      -43.35730000     -31.38710000     -68.23540000
H      -42.60170000     -33.68200000     -68.04870000
C      -43.61010000     -29.75210000     -70.50070000
H      -42.79850000     -29.25570000     -70.96470000
H      -43.80890000     -29.25310000     -69.60310000
C      -41.44360000     -33.91960000     -72.53600000
H      -40.68990000     -33.25580000     -72.98590000
H      -40.90750000     -34.87640000     -72.32630000
S      -45.06540000     -29.52180000     -71.70630000
S      -42.76840000     -34.16660000     -73.79120000
C      -46.07130000     -30.88350000     -70.97840000
H      -45.43140000     -31.51630000     -70.24090000
H      -46.89850000     -30.49680000     -70.36610000
C      -44.13880000     -34.69110000     -72.68120000
H      -44.36510000     -33.93650000     -71.88550000
H      -43.83710000     -35.60570000     -72.19300000
C      -45.50200000     -34.93100000     -73.32930000
H      -45.79940000     -33.90720000     -73.59500000
H      -45.53150000     -35.72760000     -74.06850000
C      -46.59640000     -31.91430000     -72.00260000
H      -45.72420000     -32.40470000     -72.50380000
H      -47.12030000     -31.37320000     -72.81790000
C      -47.53650000     -32.98610000     -71.40930000
C      -48.63870000     -32.65500000     -70.57730000
C      -47.30550000     -34.42250000     -71.44440000
H      -48.98240000     -31.65110000     -70.20760000
C      -48.11910000     -35.16420000     -70.58110000
C      -46.43680000     -35.31650000     -72.19280000
C      -46.60660000     -36.62940000     -71.84210000
S      -49.25210000     -34.12720000     -69.75210000
S      -47.90400000     -36.88860000     -70.64450000
H      -46.10200000     -37.40530000     -72.38680000
