40
Properties=species:S:1:pos:R:3 #=T CELL(abcABC):=T 1.889726e+02=T 90.00000=T Traj:=T positionsangstrom=T Step:=T 0=T Bead:=T pbc="F F F"
C      -43.01150000     -30.41960000     -69.71990000
C      -42.70420000     -31.03440000     -70.95770000
C      -43.76110000     -30.94530000     -71.91100000
C      -45.03110000     -30.37490000     -71.60100000
C      -45.15820000     -29.64250000     -70.43170000
C      -44.13910000     -29.64210000     -69.49740000
H      -42.19440000     -30.36460000     -69.02840000
H      -43.80690000     -31.23430000     -72.99620000
H      -46.02090000     -29.08640000     -70.46140000
H      -44.24020000     -29.19990000     -68.49780000
C      -46.05050000     -30.31360000     -72.68150000
H      -45.73440000     -30.64110000     -73.64900000
H      -46.32220000     -29.26880000     -72.75430000
C      -41.30660000     -31.66860000     -71.27040000
H      -40.73820000     -31.12530000     -72.06400000
H      -40.63510000     -31.66020000     -70.47930000
S      -47.68080000     -31.20650000     -72.34910000
S      -41.42200000     -33.36830000     -71.96240000
C      -47.75090000     -32.52730000     -73.69260000
H      -48.75060000     -32.95370000     -73.66610000
H      -47.56560000     -32.09720000     -74.66750000
C      -42.65650000     -34.33370000     -71.02360000
H      -43.08540000     -33.78340000     -70.19670000
H      -42.06860000     -35.18170000     -70.57080000
C      -43.74290000     -34.72010000     -71.92270000
H      -44.28140000     -33.83320000     -72.37120000
H      -43.42350000     -35.32480000     -72.76390000
C      -46.69230000     -33.60200000     -73.35780000
H      -45.71800000     -33.16860000     -73.20430000
H      -46.48670000     -34.26050000     -74.25440000
C      -47.08600000     -34.54360000     -72.25040000
C      -48.39200000     -34.66000000     -71.76950000
C      -46.22980000     -35.33960000     -71.40920000
H      -49.24430000     -34.08440000     -72.06220000
C      -46.91800000     -36.05490000     -70.43200000
C      -44.81920000     -35.49050000     -71.20780000
C      -44.54410000     -36.46350000     -70.25910000
S      -48.59040000     -35.83540000     -70.44450000
S      -45.97510000     -37.05590000     -69.36440000
H      -43.54900000     -36.64060000     -69.91320000
