40
Properties=species:S:1:pos:R:3 #=T CELL(abcABC):=T 1.889726e+02=T 90.00000=T Traj:=T positionsangstrom=T Step:=T 0=T Bead:=T pbc="F F F"
C      -43.06760000     -30.64290000     -69.78850000
C      -42.73000000     -31.04910000     -71.08860000
C      -43.62370000     -30.99200000     -72.15840000
C      -44.91000000     -30.43880000     -71.97470000
C      -45.31540000     -30.08850000     -70.65260000
C      -44.37230000     -30.15240000     -69.55700000
H      -42.22580000     -30.70660000     -69.04710000
H      -43.22260000     -31.30720000     -73.11340000
H      -46.32000000     -29.61860000     -70.33630000
H      -44.69160000     -29.76910000     -68.60520000
C      -45.89950000     -30.22600000     -73.11700000
H      -45.65000000     -30.63820000     -74.10020000
H      -46.06380000     -29.12170000     -73.27320000
C      -41.35950000     -31.65820000     -71.40560000
H      -40.67800000     -31.15180000     -72.20130000
H      -40.62390000     -31.77040000     -70.57810000
S      -47.58020000     -30.83870000     -72.67740000
S      -41.62430000     -33.38110000     -72.21670000
C      -47.59920000     -32.43320000     -73.69210000
H      -48.69400000     -32.71040000     -73.64750000
H      -47.36300000     -32.14040000     -74.70940000
C      -42.63610000     -34.34390000     -71.04070000
H      -43.08600000     -33.80210000     -70.22400000
H      -42.01870000     -35.08040000     -70.50940000
C      -43.79660000     -34.96060000     -71.92150000
H      -44.22390000     -34.13460000     -72.46070000
H      -43.44560000     -35.67730000     -72.66800000
C      -46.75700000     -33.63300000     -73.20350000
H      -45.72260000     -33.23400000     -73.11050000
H      -46.67620000     -34.36720000     -73.95270000
C      -47.14370000     -34.38650000     -71.92920000
C      -48.40830000     -34.57380000     -71.47880000
C      -46.19860000     -35.24840000     -71.11280000
H      -49.32120000     -34.22580000     -71.97060000
C      -46.86800000     -36.01260000     -70.13730000
C      -44.79690000     -35.62190000     -71.06730000
C      -44.51480000     -36.53190000     -70.09750000
S      -48.53440000     -35.66410000     -70.02520000
S      -45.93790000     -37.04820000     -69.16970000
H      -43.53160000     -36.92750000     -69.75800000
