40
Properties=species:S:1:pos:R:3 #=T CELL(abcABC):=T 1.889726e+02=T 90.00000=T Traj:=T positionsangstrom=T Step:=T 0=T Bead:=T pbc="F F F"
C      -43.07680000     -30.36190000     -69.76310000
C      -42.79130000     -30.92710000     -70.99690000
C      -43.91440000     -30.97340000     -71.88080000
C      -45.05570000     -30.20280000     -71.64230000
C      -45.20840000     -29.52850000     -70.44640000
C      -44.23950000     -29.66650000     -69.47910000
H      -42.29480000     -30.39840000     -68.99290000
H      -43.89900000     -31.64570000     -72.78120000
H      -46.15170000     -29.00720000     -70.31730000
H      -44.47820000     -29.27500000     -68.50910000
C      -46.14420000     -30.08630000     -72.66070000
H      -45.76350000     -30.29700000     -73.69130000
H      -46.42010000     -29.03090000     -72.56970000
C      -41.39440000     -31.47730000     -71.26730000
H      -40.90710000     -30.85170000     -72.04500000
H      -40.92490000     -31.36220000     -70.27650000
S      -47.46550000     -31.33590000     -72.25230000
S      -41.35350000     -33.24960000     -71.97520000
C      -47.42800000     -32.49590000     -73.66990000
H      -48.52010000     -32.72800000     -73.83400000
H      -47.00780000     -31.94790000     -74.54540000
C      -42.65910000     -34.09790000     -71.01000000
H      -43.14940000     -33.43170000     -70.33920000
H      -42.16500000     -34.87940000     -70.43410000
C      -43.66820000     -34.82810000     -71.85670000
H      -43.92710000     -34.06590000     -72.62940000
H      -43.11480000     -35.62070000     -72.42610000
C      -46.63660000     -33.79160000     -73.37390000
H      -45.54750000     -33.46550000     -73.23660000
H      -46.70870000     -34.47800000     -74.22920000
C      -47.08380000     -34.64860000     -72.21890000
C      -48.43310000     -34.78110000     -71.96160000
C      -46.25430000     -35.31040000     -71.25890000
H      -49.29000000     -34.46890000     -72.45580000
C      -46.99710000     -36.09720000     -70.36620000
C      -44.84450000     -35.42210000     -71.04290000
C      -44.55940000     -36.39860000     -70.10540000
S      -48.71640000     -36.00910000     -70.65000000
S      -45.98550000     -37.13520000     -69.40960000
H      -43.58390000     -36.67690000     -69.68270000
