40
Properties=species:S:1:pos:R:3 #=T CELL(abcABC):=T 1.889726e+02=T 90.00000=T Traj:=T positionsangstrom=T Step:=T 0=T Bead:=T pbc="F F F"
C      -48.18620000     -36.43760000     -72.60480000
C      -47.44190000     -35.19530000     -72.60490000
C      -46.42120000     -35.12340000     -71.67590000
C      -46.09960000     -36.06010000     -70.69400000
C      -46.86170000     -37.24340000     -70.71130000
C      -47.84800000     -37.42850000     -71.68120000
H      -49.12480000     -36.70540000     -73.13460000
H      -45.66680000     -34.28450000     -71.77510000
H      -46.70310000     -37.95900000     -69.90400000
H      -48.35540000     -38.37610000     -71.64110000
C      -44.96610000     -35.85090000     -69.73940000
H      -44.15660000     -35.25910000     -70.18950000
H      -44.55700000     -36.82210000     -69.49250000
C      -47.89020000     -34.17920000     -73.63180000
H      -47.79410000     -34.68280000     -74.65770000
H      -48.94790000     -33.87600000     -73.28100000
S      -45.63840000     -34.94360000     -68.10900000
S      -46.93980000     -32.61360000     -73.75440000
C      -46.32130000     -33.45890000     -68.85790000
H      -46.72020000     -33.64480000     -69.88150000
H      -47.20620000     -33.14680000     -68.29180000
C      -47.54140000     -31.70370000     -72.20930000
H      -47.66290000     -32.37420000     -71.38460000
H      -48.51890000     -31.22320000     -72.42990000
C      -46.54300000     -30.59910000     -71.71590000
H      -46.80380000     -29.76160000     -72.39870000
H      -46.93440000     -30.31790000     -70.72150000
C      -45.26720000     -32.26180000     -68.79840000
H      -44.95430000     -32.10740000     -67.76740000
H      -45.98920000     -31.41880000     -69.00370000
C      -44.05530000     -32.29120000     -69.71080000
C      -42.80970000     -32.72630000     -69.37300000
C      -44.18400000     -31.78100000     -71.12300000
H      -42.35280000     -33.07880000     -68.45130000
C      -42.92520000     -31.98140000     -71.71310000
C      -45.04560000     -30.97310000     -71.96870000
C      -44.45100000     -30.73980000     -73.18220000
S      -41.68600000     -32.66000000     -70.70830000
S      -42.78260000     -31.23840000     -73.30010000
H      -44.94570000     -30.17370000     -73.98130000
