40
Properties=species:S:1:pos:R:3 #=T CELL(abcABC):=T 1.889726e+02=T 90.00000=T Traj:=T positionsangstrom=T Step:=T 0=T Bead:=T pbc="F F F"
C      -43.28310000     -31.25220000     -69.53840000
C      -42.92830000     -31.24950000     -70.84350000
C      -43.75370000     -30.71310000     -71.82730000
C      -44.91260000     -30.16360000     -71.47910000
C      -45.32360000     -30.15640000     -70.12290000
C      -44.44950000     -30.62610000     -69.17750000
H      -42.63090000     -31.67390000     -68.77730000
H      -43.33060000     -30.55800000     -72.81280000
H      -46.24550000     -29.75910000     -69.78680000
H      -44.73620000     -30.63610000     -68.14940000
C      -45.87740000     -29.70140000     -72.60420000
H      -45.28450000     -29.47620000     -73.45490000
H      -46.53500000     -28.92140000     -72.15610000
C      -41.69780000     -31.96820000     -71.38970000
H      -41.01060000     -31.44550000     -72.10050000
H      -41.10350000     -32.35570000     -70.59510000
S      -47.20140000     -30.97340000     -72.97480000
S      -42.21030000     -33.44200000     -72.38890000
C      -46.43330000     -32.44170000     -73.86480000
H      -47.32630000     -32.81230000     -74.47030000
H      -45.72140000     -31.92980000     -74.51500000
C      -42.80630000     -34.53990000     -71.12890000
H      -43.41200000     -33.90910000     -70.47850000
H      -41.92120000     -34.77100000     -70.51380000
C      -43.55460000     -35.75250000     -71.76730000
H      -43.64290000     -35.60660000     -72.82480000
H      -42.98950000     -36.69670000     -71.65450000
C      -45.78100000     -33.59040000     -73.07200000
H      -44.91330000     -33.34040000     -72.41680000
H      -45.36500000     -34.30680000     -73.76180000
C      -46.68490000     -34.31980000     -72.13450000
C      -47.99780000     -34.01300000     -71.73010000
C      -46.10880000     -35.25920000     -71.22550000
H      -48.75080000     -33.51040000     -72.30590000
C      -47.03680000     -35.72600000     -70.28280000
C      -44.87900000     -35.97880000     -71.11230000
C      -44.85390000     -36.76570000     -70.00050000
S      -48.61680000     -35.01370000     -70.44490000
S      -46.40620000     -36.95960000     -69.19430000
H      -44.00790000     -37.38010000     -69.69780000
