40
Properties=species:S:1:pos:R:3 #=T CELL(abcABC):=T 1.889726e+02=T 90.00000=T Traj:=T positionsangstrom=T Step:=T 0=T Bead:=T pbc="F F F"
C      -44.02760000     -29.35960000     -71.60850000
C      -44.63800000     -30.23180000     -72.50630000
C      -45.91330000     -30.70720000     -72.16480000
C      -46.58650000     -30.18400000     -71.08510000
C      -45.98110000     -29.14780000     -70.26360000
C      -44.62450000     -28.86510000     -70.45920000
H      -42.98690000     -29.14010000     -71.77210000
H      -46.49590000     -31.40260000     -72.83690000
H      -46.61920000     -28.64840000     -69.54100000
H      -44.04830000     -28.14810000     -69.88680000
C      -48.01190000     -30.53420000     -70.85900000
H      -48.61570000     -30.74840000     -71.77110000
H      -48.57340000     -29.78650000     -70.27940000
C      -43.75810000     -30.71170000     -73.68690000
H      -44.31900000     -30.78670000     -74.59070000
H      -43.02450000     -29.87920000     -73.87820000
S      -48.30470000     -31.91660000     -69.61140000
S      -43.12800000     -32.34360000     -73.31050000
C      -47.48100000     -33.36820000     -70.41500000
H      -48.24540000     -33.87970000     -70.89000000
H      -46.70760000     -33.07230000     -71.12690000
C      -42.88880000     -32.49180000     -71.43960000
H      -42.89580000     -31.50240000     -71.02350000
H      -41.97530000     -32.98130000     -71.22640000
C      -43.95220000     -33.33780000     -70.70410000
H      -43.67470000     -33.24440000     -69.66730000
H      -44.89880000     -32.86220000     -70.68320000
C      -46.79020000     -34.24720000     -69.35370000
H      -47.42140000     -34.47490000     -68.45580000
H      -45.94980000     -33.82420000     -68.81640000
C      -46.30970000     -35.51190000     -70.01000000
C      -47.01560000     -36.69130000     -70.12650000
C      -45.11030000     -35.64750000     -70.84430000
H      -47.98060000     -36.93820000     -69.62350000
C      -44.98640000     -36.85530000     -71.48950000
C      -44.01080000     -34.75970000     -71.18810000
C      -43.07710000     -35.28810000     -72.05330000
S      -46.36270000     -37.89940000     -71.16490000
S      -43.53420000     -36.98510000     -72.42590000
H      -42.23680000     -34.89580000     -72.64410000
