40
Properties=species:S:1:pos:R:3 #=T CELL(abcABC):=T 1.889726e+02=T 90.00000=T Traj:=T positionsangstrom=T Step:=T 0=T Bead:=T pbc="F F F"
C      -43.17790000     -31.14370000     -69.93310000
C      -42.86880000     -31.15510000     -71.32190000
C      -43.85160000     -30.89420000     -72.35850000
C      -45.10260000     -30.45650000     -71.98850000
C      -45.37520000     -30.23130000     -70.59290000
C      -44.47610000     -30.67220000     -69.64890000
H      -42.43720000     -31.35780000     -69.20620000
H      -43.63020000     -30.94420000     -73.40520000
H      -46.40170000     -29.93180000     -70.36890000
H      -44.71310000     -30.75920000     -68.59160000
C      -46.09340000     -30.06400000     -73.04530000
H      -45.70040000     -30.53250000     -73.98510000
H      -46.10210000     -28.99720000     -73.12410000
C      -41.52230000     -31.62390000     -71.78270000
H      -41.24490000     -31.09920000     -72.66910000
H      -40.80080000     -31.45980000     -70.92750000
S      -47.71120000     -30.88890000     -72.78900000
S      -41.52850000     -33.42170000     -72.22470000
C      -47.27880000     -32.52950000     -73.52240000
H      -48.19800000     -33.01500000     -73.64500000
H      -46.84430000     -32.36170000     -74.49970000
C      -42.82810000     -34.09170000     -71.14970000
H      -43.45390000     -33.22240000     -70.83660000
H      -42.32860000     -34.49550000     -70.29980000
C      -43.66350000     -35.18870000     -71.92670000
H      -43.89990000     -34.80660000     -72.93880000
H      -42.97650000     -35.99410000     -72.16440000
C      -46.28390000     -33.38700000     -72.79330000
H      -45.38660000     -32.82470000     -72.51800000
H      -45.91790000     -34.04870000     -73.62770000
C      -46.89180000     -34.16480000     -71.63330000
C      -48.17760000     -34.10410000     -71.19490000
C      -46.13820000     -35.13880000     -70.88730000
H      -49.01980000     -33.48680000     -71.50830000
C      -46.88550000     -35.90340000     -69.94360000
C      -44.78030000     -35.72080000     -71.00470000
C      -44.48820000     -36.68660000     -70.10320000
S      -48.59890000     -35.42800000     -70.10070000
S      -45.91040000     -37.12700000     -69.19100000
H      -43.55140000     -37.22720000     -70.12370000
