40
Properties=species:S:1:pos:R:3 #=T CELL(abcABC):=T 1.889726e+02=T 90.00000=T Traj:=T positionsangstrom=T Step:=T 0=T Bead:=T pbc="F F F"
C      -48.28890000     -35.97370000     -70.11860000
C      -48.25740000     -34.54170000     -69.95200000
C      -48.62870000     -33.73260000     -71.00650000
C      -48.90660000     -34.26590000     -72.28260000
C      -48.79930000     -35.66630000     -72.43980000
C      -48.63520000     -36.48520000     -71.33320000
H      -48.29120000     -36.58130000     -69.27030000
H      -48.64210000     -32.64940000     -70.87870000
H      -49.00750000     -36.11070000     -73.46520000
H      -48.54630000     -37.53370000     -71.51430000
C      -49.13770000     -33.37600000     -73.44200000
H      -49.58970000     -32.42820000     -73.13270000
H      -49.83650000     -33.84490000     -74.15960000
C      -47.86660000     -33.95110000     -68.56320000
H      -48.40000000     -33.05690000     -68.43070000
H      -48.02980000     -34.70010000     -67.79610000
S      -47.49190000     -33.21820000     -74.28610000
S      -46.16260000     -33.41490000     -68.61450000
C      -46.36420000     -32.40940000     -73.00390000
H      -46.39210000     -31.37230000     -73.02340000
H      -46.78770000     -32.78220000     -72.07520000
C      -45.27450000     -34.89900000     -69.11260000
H      -45.86060000     -35.78710000     -69.26650000
H      -44.49700000     -35.22930000     -68.35130000
C      -44.52850000     -34.64430000     -70.40700000
H      -44.08550000     -35.49570000     -70.90510000
H      -45.25970000     -34.30180000     -71.11790000
C      -44.91700000     -32.99710000     -73.31670000
H      -44.81140000     -32.86290000     -74.39010000
H      -44.90300000     -34.03580000     -73.08510000
C      -43.77800000     -32.29980000     -72.61410000
C      -42.98510000     -31.38130000     -73.33900000
C      -43.07490000     -32.65270000     -71.41030000
H      -43.11690000     -30.96830000     -74.33490000
C      -41.83460000     -32.08220000     -71.20240000
C      -43.45770000     -33.60120000     -70.33540000
C      -42.41130000     -33.63810000     -69.41890000
S      -41.48130000     -30.99210000     -72.51500000
S      -41.02340000     -32.59310000     -69.79900000
H      -42.31170000     -34.29950000     -68.58180000
