40
Properties=species:S:1:pos:R:3 #=T CELL(abcABC):=T 1.889726e+02=T 90.00000=T Traj:=T positionsangstrom=T Step:=T 0=T Bead:=T pbc="F F F"
C      -48.75730000     -36.21350000     -70.00070000
C      -48.46760000     -34.85310000     -69.75610000
C      -48.21710000     -33.93470000     -70.84930000
C      -48.47290000     -34.34820000     -72.18080000
C      -48.83610000     -35.70590000     -72.37640000
C      -49.01300000     -36.54370000     -71.33370000
H      -48.79280000     -37.02240000     -69.26790000
H      -47.97400000     -32.91160000     -70.57930000
H      -49.09450000     -36.04110000     -73.30920000
H      -49.32100000     -37.60240000     -71.43570000
C      -48.51970000     -33.36210000     -73.27990000
H      -48.55300000     -32.35860000     -72.84420000
H      -49.42990000     -33.55720000     -73.93330000
C      -48.11340000     -34.31590000     -68.31430000
H      -48.86870000     -33.62880000     -67.90500000
H      -48.07150000     -35.09950000     -67.56730000
S      -47.16710000     -33.28020000     -74.52080000
S      -46.34340000     -33.57950000     -68.42210000
C      -45.85330000     -32.46580000     -73.55180000
H      -46.09030000     -31.37920000     -73.58470000
H      -46.05330000     -32.76000000     -72.50750000
C      -45.56020000     -34.96250000     -69.51790000
H      -46.31280000     -35.66980000     -69.89040000
H      -44.72460000     -35.46940000     -68.91850000
C      -44.84800000     -34.42800000     -70.77030000
H      -44.43900000     -35.30010000     -71.39350000
H      -45.59340000     -33.88720000     -71.30780000
C      -44.39680000     -32.80110000     -73.87500000
H      -44.17240000     -32.65920000     -74.98140000
H      -44.20610000     -33.83870000     -73.67280000
C      -43.43270000     -32.18780000     -72.89750000
C      -42.51210000     -31.31620000     -73.40270000
C      -43.18000000     -32.46810000     -71.48360000
H      -42.51160000     -30.83450000     -74.34990000
C      -41.99720000     -31.90970000     -71.01620000
C      -43.67900000     -33.48470000     -70.56410000
C      -42.87460000     -33.53240000     -69.44460000
S      -41.32860000     -30.79480000     -72.21100000
S      -41.51040000     -32.47000000     -69.49470000
H      -43.05490000     -34.19580000     -68.64750000
