40
Properties=species:S:1:pos:R:3 #=T CELL(abcABC):=T 1.889726e+02=T 90.00000=T Traj:=T positionsangstrom=T Step:=T 0=T Bead:=T pbc="F F F"
C      -48.45720000     -36.16490000     -70.41470000
C      -48.30140000     -34.76330000     -70.06970000
C      -48.44000000     -33.70980000     -71.05570000
C      -48.74090000     -34.08210000     -72.38610000
C      -49.01460000     -35.44390000     -72.68290000
C      -48.82720000     -36.45630000     -71.73910000
H      -48.58190000     -36.88470000     -69.61960000
H      -48.22260000     -32.64270000     -70.85090000
H      -49.44730000     -35.72790000     -73.72200000
H      -48.93310000     -37.48650000     -72.07890000
C      -48.58660000     -33.10230000     -73.54610000
H      -48.68110000     -32.01160000     -73.21290000
H      -49.37930000     -33.17770000     -74.31720000
C      -47.98960000     -34.44790000     -68.63520000
H      -48.32320000     -33.43240000     -68.44990000
H      -48.52160000     -35.15190000     -67.99620000
S      -47.00820000     -33.49810000     -74.42130000
S      -46.18210000     -34.22980000     -68.26630000
C      -45.73490000     -32.37050000     -73.77450000
H      -45.72900000     -31.50460000     -74.38560000
H      -45.97470000     -32.18080000     -72.75010000
C      -45.33600000     -35.23900000     -69.47940000
H      -45.86180000     -36.13390000     -69.81960000
H      -44.49810000     -35.74810000     -68.94120000
C      -44.76520000     -34.50390000     -70.69100000
H      -44.35850000     -35.29210000     -71.35950000
H      -45.63930000     -34.09280000     -71.28840000
C      -44.32750000     -33.13540000     -73.70080000
H      -43.83740000     -33.22900000     -74.67520000
H      -44.50240000     -34.19950000     -73.35000000
C      -43.40570000     -32.29810000     -72.77210000
C      -42.72110000     -31.19910000     -73.26080000
C      -43.08970000     -32.64320000     -71.38750000
H      -42.77990000     -30.87890000     -74.33910000
C      -42.04270000     -31.79730000     -70.87920000
C      -43.62760000     -33.51020000     -70.37390000
C      -43.05900000     -33.22720000     -69.13450000
S      -41.50200000     -30.68980000     -72.11180000
S      -41.78010000     -32.00670000     -69.23440000
H      -43.23410000     -33.70070000     -68.19060000
