40
Properties=species:S:1:pos:R:3 #=T CELL(abcABC):=T 1.889726e+02=T 90.00000=T Traj:=T positionsangstrom=T Step:=T 0=T Bead:=T pbc="F F F"
C      -43.36440000     -32.94980000     -68.49570000
C      -42.62200000     -32.77380000     -69.65630000
C      -42.83990000     -31.67440000     -70.51310000
C      -43.76000000     -30.71190000     -70.13700000
C      -44.46200000     -30.92810000     -68.93110000
C      -44.31160000     -32.04610000     -68.13550000
H      -43.22140000     -33.87870000     -67.88150000
H      -42.26560000     -31.64020000     -71.48910000
H      -45.08190000     -30.13340000     -68.57800000
H      -44.79960000     -32.07640000     -67.14230000
C      -44.14680000     -29.54900000     -71.04190000
H      -43.41650000     -29.48330000     -71.86080000
H      -44.12870000     -28.67060000     -70.40210000
C      -41.68700000     -33.90870000     -70.16530000
H      -41.41430000     -33.74850000     -71.16450000
H      -40.71590000     -33.72350000     -69.71410000
S      -45.88450000     -29.50840000     -71.66220000
S      -42.03440000     -35.70970000     -69.75880000
C      -45.80510000     -30.55210000     -73.24760000
H      -46.69650000     -30.47050000     -73.80280000
H      -44.95870000     -30.24120000     -73.91440000
C      -43.49990000     -36.05770000     -70.79160000
H      -44.21540000     -36.57770000     -70.19000000
H      -43.29460000     -36.84750000     -71.55300000
C      -44.25880000     -34.87420000     -71.39440000
H      -44.42150000     -34.16990000     -70.60560000
H      -43.68350000     -34.46430000     -72.29270000
C      -45.54340000     -32.08710000     -72.90510000
H      -45.02310000     -32.16040000     -71.97060000
H      -44.70100000     -32.38330000     -73.62560000
C      -46.75620000     -32.99940000     -72.87000000
C      -48.04970000     -32.73080000     -73.33770000
C      -46.56530000     -34.41380000     -72.49090000
H      -48.38800000     -31.69650000     -73.66930000
C      -47.84490000     -35.06530000     -72.59750000
C      -45.65270000     -35.30070000     -71.86000000
C      -46.17210000     -36.55260000     -71.59440000
S      -49.15400000     -34.10820000     -73.13090000
S      -47.83400000     -36.68390000     -71.92300000
H      -45.64270000     -37.35000000     -71.16210000
