40
Properties=species:S:1:pos:R:3 #=T CELL(abcABC):=T 1.889726e+02=T 90.00000=T Traj:=T positionsangstrom=T Step:=T 0=T Bead:=T pbc="F F F"
C      -43.28130000     -33.00020000     -68.22320000
C      -42.83390000     -32.92320000     -69.54440000
C      -43.24110000     -31.80500000     -70.35600000
C      -43.96910000     -30.70070000     -69.76420000
C      -44.35080000     -30.85310000     -68.39740000
C      -43.86030000     -31.90450000     -67.66860000
H      -42.87250000     -33.74210000     -67.54470000
H      -42.77930000     -31.55670000     -71.28240000
H      -44.93590000     -30.03340000     -67.93510000
H      -44.07860000     -31.93900000     -66.58270000
C      -44.30360000     -29.56570000     -70.74020000
H      -43.53140000     -29.63770000     -71.49440000
H      -44.44360000     -28.55940000     -70.31670000
C      -41.85900000     -33.85920000     -70.21990000
H      -41.89660000     -33.75470000     -71.27820000
H      -40.81840000     -33.71760000     -69.95620000
S      -45.85290000     -29.84890000     -71.67390000
S      -42.10320000     -35.69390000     -69.72360000
C      -45.36120000     -30.69020000     -73.23110000
H      -46.22090000     -30.34730000     -73.87500000
H      -44.48650000     -30.19700000     -73.63400000
C      -43.73600000     -36.06890000     -70.48930000
H      -44.43140000     -36.53510000     -69.73040000
H      -43.54050000     -36.92030000     -71.19120000
C      -44.44990000     -34.89430000     -71.16350000
H      -44.45630000     -34.17620000     -70.28380000
H      -44.01100000     -34.47840000     -72.06320000
C      -45.16200000     -32.22960000     -73.13270000
H      -44.60400000     -32.50450000     -72.18010000
H      -44.43240000     -32.48170000     -74.03530000
C      -46.42270000     -33.06600000     -73.19350000
C      -47.61120000     -32.71700000     -73.77810000
C      -46.65260000     -34.39710000     -72.49540000
H      -47.80970000     -31.83140000     -74.38720000
C      -47.89130000     -34.95080000     -72.73590000
C      -45.80150000     -35.27420000     -71.65580000
C      -46.49000000     -36.42500000     -71.33450000
S      -48.88780000     -33.88730000     -73.81100000
S      -48.10780000     -36.52450000     -72.10700000
H      -46.05740000     -37.29360000     -70.82720000
