40
Properties=species:S:1:pos:R:3 #=T CELL(abcABC):=T 1.889726e+02=T 90.00000=T Traj:=T positionsangstrom=T Step:=T 0=T Bead:=T pbc="F F F"
C      -43.21880000     -33.01650000     -68.07430000
C      -42.61150000     -32.80680000     -69.33150000
C      -42.98630000     -31.72050000     -70.18010000
C      -43.90480000     -30.76800000     -69.73260000
C      -44.52950000     -30.96730000     -68.47070000
C      -44.26820000     -32.12630000     -67.69560000
H      -42.98210000     -33.79730000     -67.40660000
H      -42.52180000     -31.47970000     -71.16910000
H      -45.26010000     -30.26450000     -68.03990000
H      -44.67870000     -32.12430000     -66.71240000
C      -44.32910000     -29.62320000     -70.54800000
H      -43.52860000     -29.11110000     -71.19970000
H      -44.70850000     -28.79520000     -69.93410000
C      -41.76350000     -33.87880000     -69.92430000
H      -41.68090000     -33.78470000     -71.00900000
H      -40.82800000     -33.76900000     -69.47680000
S      -45.81480000     -30.16890000     -71.51940000
S      -42.28510000     -35.59490000     -69.64660000
C      -45.02250000     -30.97970000     -73.01630000
H      -45.58180000     -30.51790000     -73.81840000
H      -44.05210000     -30.45530000     -73.01910000
C      -43.96470000     -36.02160000     -70.24700000
H      -44.54790000     -35.91770000     -69.36530000
H      -43.96960000     -36.95590000     -70.80610000
C      -44.49060000     -35.04120000     -71.35700000
H      -44.35950000     -34.08120000     -70.86320000
H      -43.68570000     -35.02340000     -72.18220000
C      -44.96130000     -32.47880000     -73.00220000
H      -44.59360000     -32.72770000     -72.00390000
H      -44.07440000     -32.81400000     -73.62980000
C      -46.25080000     -33.15880000     -73.31480000
C      -47.25340000     -32.64190000     -74.12160000
C      -46.65420000     -34.38200000     -72.67210000
H      -47.21530000     -31.75230000     -74.80760000
C      -47.95770000     -34.82810000     -73.05600000
C      -45.89390000     -35.28470000     -71.78600000
C      -46.66700000     -36.41140000     -71.53000000
S      -48.74860000     -33.60870000     -74.09580000
S      -48.33120000     -36.25110000     -72.15050000
H      -46.44060000     -37.20580000     -70.83600000
