40
Properties=species:S:1:pos:R:3 #=T CELL(abcABC):=T 1.889726e+02=T 90.00000=T Traj:=T positionsangstrom=T Step:=T 0=T Bead:=T pbc="F F F"
C      -44.32100000     -29.16200000     -71.61670000
C      -44.79940000     -30.18260000     -72.39950000
C      -46.09330000     -30.66070000     -72.18350000
C      -46.90170000     -30.17650000     -71.18430000
C      -46.43000000     -29.08700000     -70.33650000
C      -45.16440000     -28.60300000     -70.62860000
H      -43.33860000     -28.79210000     -71.79120000
H      -46.38920000     -31.52140000     -72.81240000
H      -47.15680000     -28.77680000     -69.56720000
H      -44.85120000     -27.66400000     -70.08800000
C      -48.26350000     -30.77910000     -70.94850000
H      -48.56090000     -31.45480000     -71.73880000
H      -49.05830000     -30.06330000     -70.73920000
C      -44.00550000     -30.67730000     -73.58220000
H      -44.62870000     -30.66760000     -74.52050000
H      -43.14730000     -29.98980000     -73.74850000
S      -48.12150000     -31.87220000     -69.37450000
S      -43.23410000     -32.40280000     -73.34930000
C      -47.40030000     -33.40900000     -70.15160000
H      -48.15430000     -34.09690000     -70.55030000
H      -46.64220000     -33.12060000     -70.91350000
C      -42.75380000     -32.46230000     -71.53530000
H      -42.76880000     -31.41330000     -71.17860000
H      -41.68200000     -32.75470000     -71.50560000
C      -43.67280000     -33.37030000     -70.75080000
H      -43.41100000     -33.44550000     -69.72420000
H      -44.63980000     -32.89550000     -70.68150000
C      -46.52750000     -34.29140000     -69.21640000
H      -47.11870000     -34.50370000     -68.32470000
H      -45.67590000     -33.77070000     -68.79360000
C      -46.09620000     -35.49270000     -70.05720000
C      -46.88040000     -36.63390000     -70.10720000
C      -44.91830000     -35.67260000     -70.89920000
H      -47.70170000     -36.89130000     -69.50730000
C      -44.83290000     -36.94480000     -71.49750000
C      -43.86220000     -34.76730000     -71.33900000
C      -42.99770000     -35.29810000     -72.20870000
S      -46.20990000     -37.89410000     -71.10660000
S      -43.47040000     -37.06150000     -72.53590000
H      -42.06630000     -34.87190000     -72.59730000
