40
Properties=species:S:1:pos:R:3 #=T CELL(abcABC):=T 1.889726e+02=T 90.00000=T Traj:=T positionsangstrom=T Step:=T 0=T Bead:=T pbc="F F F"
C      -43.27970000     -32.98500000     -68.22100000
C      -42.72240000     -32.81640000     -69.50390000
C      -42.93990000     -31.63390000     -70.23180000
C      -43.92930000     -30.70330000     -69.75130000
C      -44.39060000     -30.85170000     -68.43250000
C      -44.02900000     -31.95250000     -67.69010000
H      -43.22860000     -33.82230000     -67.60310000
H      -42.58930000     -31.40560000     -71.24370000
H      -45.00870000     -29.98780000     -68.08750000
H      -44.45870000     -32.08550000     -66.71820000
C      -44.44250000     -29.49160000     -70.53800000
H      -43.69540000     -28.92310000     -71.10100000
H      -44.84990000     -28.77390000     -69.81450000
C      -41.83530000     -33.86960000     -70.11610000
H      -41.82740000     -33.82070000     -71.23250000
H      -40.73430000     -33.68370000     -69.84560000
S      -45.87150000     -29.97960000     -71.61190000
S      -42.24750000     -35.64860000     -69.61630000
C      -45.13640000     -30.76750000     -73.13130000
H      -45.71730000     -30.49270000     -73.99920000
H      -44.08520000     -30.48180000     -73.28340000
C      -43.84730000     -36.15610000     -70.46410000
H      -44.55150000     -36.39980000     -69.64960000
H      -43.55730000     -37.14310000     -70.78930000
C      -44.39430000     -35.10070000     -71.36180000
H      -44.38430000     -34.10830000     -70.98820000
H      -43.71690000     -35.03900000     -72.22160000
C      -45.05560000     -32.30570000     -73.08580000
H      -44.63100000     -32.56700000     -72.14310000
H      -44.40150000     -32.60170000     -73.86570000
C      -46.33620000     -33.15740000     -73.22470000
C      -47.41050000     -32.70740000     -73.94450000
C      -46.59610000     -34.38430000     -72.57570000
H      -47.60020000     -31.81570000     -74.61100000
C      -47.83220000     -34.90440000     -72.84410000
C      -45.83790000     -35.29890000     -71.75030000
C      -46.64300000     -36.40250000     -71.41180000
S      -48.79000000     -33.89070000     -73.95110000
S      -48.27420000     -36.34820000     -72.09230000
H      -46.38470000     -37.38500000     -70.95820000
