40
Properties=species:S:1:pos:R:3 #=T CELL(abcABC):=T 1.889726e+02=T 90.00000=T Traj:=T positionsangstrom=T Step:=T 0=T Bead:=T pbc="F F F"
C      -48.69530000     -36.18410000     -72.23620000
C      -47.59310000     -35.44570000     -72.75850000
C      -46.44660000     -35.25650000     -71.98000000
C      -46.38190000     -35.72990000     -70.68580000
C      -47.44030000     -36.39490000     -70.14430000
C      -48.57670000     -36.67630000     -70.86490000
H      -49.59180000     -36.27890000     -72.72860000
H      -45.73970000     -34.54560000     -72.36600000
H      -47.33600000     -36.76060000     -69.10550000
H      -49.35520000     -37.28170000     -70.37410000
C      -45.25150000     -35.46330000     -69.71360000
H      -44.38960000     -34.99520000     -70.26570000
H      -44.81240000     -36.43020000     -69.38820000
C      -47.72280000     -34.83580000     -74.10950000
H      -47.10440000     -35.35410000     -74.91770000
H      -48.72770000     -34.98920000     -74.52320000
S      -45.80040000     -34.53890000     -68.18070000
S      -47.17620000     -33.06520000     -74.09360000
C      -46.20830000     -32.96730000     -69.00180000
H      -46.48830000     -33.23650000     -70.10260000
H      -47.10150000     -32.61730000     -68.62310000
C      -47.33980000     -32.33910000     -72.36190000
H      -47.34450000     -33.01290000     -71.49860000
H      -48.35170000     -31.83520000     -72.43030000
C      -46.23440000     -31.25750000     -72.05300000
H      -46.40010000     -30.39010000     -72.67060000
H      -46.46460000     -30.90130000     -71.10530000
C      -45.29920000     -31.79030000     -68.86310000
H      -45.07660000     -31.73210000     -67.78150000
H      -45.88420000     -30.87750000     -68.98830000
C      -44.01310000     -31.91440000     -69.68630000
C      -42.76380000     -32.09800000     -69.11240000
C      -43.89040000     -31.91000000     -71.11980000
H      -42.61500000     -32.07880000     -68.02340000
C      -42.57700000     -32.00460000     -71.56500000
C      -44.78970000     -31.59020000     -72.24130000
C      -44.18000000     -31.65660000     -73.41700000
S      -41.42570000     -32.16470000     -70.30790000
S      -42.44000000     -31.90320000     -73.29250000
H      -44.61440000     -31.21040000     -74.37730000
