40
Properties=species:S:1:pos:R:3 #=T CELL(abcABC):=T 1.889726e+02=T 90.00000=T Traj:=T positionsangstrom=T Step:=T 0=T Bead:=T pbc="F F F"
C      -47.43700000     -36.76820000     -71.35120000
C      -47.81010000     -35.49880000     -70.83150000
C      -47.87450000     -34.39200000     -71.68860000
C      -47.80240000     -34.63440000     -73.03470000
C      -47.58190000     -35.89610000     -73.54920000
C      -47.30350000     -36.98820000     -72.70930000
H      -47.18860000     -37.62230000     -70.73410000
H      -48.20500000     -33.43440000     -71.38650000
H      -47.68990000     -36.13650000     -74.63010000
H      -47.22250000     -37.96350000     -73.16270000
C      -48.15950000     -33.52610000     -74.07510000
H      -48.65310000     -32.58240000     -73.66520000
H      -48.87030000     -33.89580000     -74.85920000
C      -47.90970000     -35.22930000     -69.35630000
H      -48.66570000     -34.46560000     -69.19330000
H      -48.31700000     -36.13550000     -68.85530000
S      -46.58570000     -33.08880000     -74.90960000
S      -46.29580000     -34.66450000     -68.50280000
C      -45.76830000     -32.14350000     -73.58250000
H      -45.67590000     -31.05020000     -73.83100000
H      -46.24510000     -32.15250000     -72.59300000
C      -45.00270000     -35.67050000     -69.44740000
H      -45.57060000     -36.52870000     -69.91560000
H      -44.24230000     -36.18100000     -68.78070000
C      -44.37300000     -34.80760000     -70.49530000
H      -43.63900000     -35.50880000     -70.92710000
H      -45.12090000     -34.73990000     -71.25560000
C      -44.31380000     -32.59910000     -73.43060000
H      -43.79440000     -32.27110000     -74.33500000
H      -44.43460000     -33.68730000     -73.31230000
C      -43.63600000     -31.84210000     -72.33630000
C      -43.19910000     -30.58410000     -72.55090000
C      -43.47120000     -32.27520000     -70.97020000
H      -43.18060000     -30.05810000     -73.49000000
C      -42.99740000     -31.19670000     -70.13220000
C      -43.81520000     -33.50180000     -70.14560000
C      -43.54590000     -33.25330000     -68.82230000
S      -42.57180000     -29.79500000     -71.10500000
S      -42.88640000     -31.70510000     -68.45730000
H      -43.59030000     -33.99280000     -68.01670000
