40
Properties=species:S:1:pos:R:3 #=T CELL(abcABC):=T 1.889726e+02=T 90.00000=T Traj:=T positionsangstrom=T Step:=T 0=T Bead:=T pbc="F F F"
C      -47.37170000     -37.21980000     -71.28380000
C      -47.19560000     -35.88390000     -70.96340000
C      -47.36710000     -34.93520000     -71.96520000
C      -47.45880000     -35.33890000     -73.32580000
C      -47.51170000     -36.67260000     -73.67330000
C      -47.42850000     -37.66970000     -72.62120000
H      -47.43570000     -37.98340000     -70.50640000
H      -47.40500000     -33.91930000     -71.69920000
H      -47.59090000     -37.00350000     -74.66170000
H      -47.48430000     -38.77460000     -72.79180000
C      -47.43800000     -34.31930000     -74.51360000
H      -48.07260000     -33.48320000     -74.25780000
H      -47.90840000     -34.83670000     -75.39070000
C      -47.19110000     -35.36440000     -69.53890000
H      -47.49590000     -34.31010000     -69.51720000
H      -47.77690000     -35.93870000     -68.89070000
S      -45.84100000     -33.58650000     -75.01990000
S      -45.52550000     -35.57050000     -68.72470000
C      -45.66140000     -32.24500000     -73.71490000
H      -46.21440000     -31.25850000     -73.99210000
H      -46.16530000     -32.56180000     -72.76040000
C      -44.14470000     -35.44660000     -69.92150000
H      -44.05240000     -36.33440000     -70.46200000
H      -43.33230000     -35.43000000     -69.08430000
C      -44.09080000     -34.24310000     -70.82900000
H      -43.41920000     -34.47570000     -71.68370000
H      -45.01990000     -34.04280000     -71.37870000
C      -44.18010000     -31.92220000     -73.44990000
H      -43.87250000     -31.41790000     -74.31190000
H      -43.64500000     -32.84590000     -73.48220000
C      -43.99770000     -31.09880000     -72.16900000
C      -44.18730000     -29.75690000     -72.11310000
C      -43.89030000     -31.67170000     -70.76090000
H      -44.19890000     -29.11370000     -72.99050000
C      -43.87050000     -30.62680000     -69.80760000
C      -43.73290000     -32.96420000     -70.14460000
C      -43.60510000     -32.88080000     -68.81630000
S      -43.96500000     -29.06270000     -70.52750000
S      -43.80760000     -31.27290000     -68.19500000
H      -43.78350000     -33.58800000     -68.09090000
