40
Properties=species:S:1:pos:R:3 #=T CELL(abcABC):=T 1.889726e+02=T 90.00000=T Traj:=T positionsangstrom=T Step:=T 0=T Bead:=T pbc="F F F"
C      -44.38040000     -29.09230000     -71.51450000
C      -44.89770000     -30.13160000     -72.34900000
C      -46.20440000     -30.55570000     -72.08670000
C      -46.96740000     -30.12460000     -70.99080000
C      -46.50330000     -28.97360000     -70.27130000
C      -45.17980000     -28.47060000     -70.56550000
H      -43.42020000     -28.74650000     -71.81740000
H      -46.73090000     -31.31470000     -72.69640000
H      -47.11490000     -28.51580000     -69.47750000
H      -44.85010000     -27.60950000     -69.99220000
C      -48.30970000     -30.74190000     -70.70300000
H      -48.93170000     -31.04020000     -71.54860000
H      -48.84660000     -29.96840000     -70.11060000
C      -44.07990000     -30.64860000     -73.52100000
H      -44.65440000     -30.64970000     -74.46140000
H      -43.16700000     -30.06060000     -73.60980000
S      -48.03250000     -32.06670000     -69.45550000
S      -43.48510000     -32.40200000     -73.46980000
C      -47.27330000     -33.44650000     -70.40900000
H      -48.01840000     -34.10790000     -70.88300000
H      -46.71230000     -33.00230000     -71.23510000
C      -42.77580000     -32.49860000     -71.78560000
H      -42.71520000     -31.46350000     -71.41280000
H      -41.85570000     -33.00040000     -71.75760000
C      -43.58800000     -33.35250000     -70.82480000
H      -43.15920000     -33.23990000     -69.78180000
H      -44.63230000     -32.95930000     -70.85760000
C      -46.49410000     -34.29090000     -69.43090000
H      -47.06890000     -34.60160000     -68.54280000
H      -45.58810000     -33.80110000     -69.04280000
C      -46.01440000     -35.53300000     -70.03650000
C      -46.80570000     -36.70790000     -70.02510000
C      -44.88500000     -35.57690000     -70.87720000
H      -47.76130000     -36.89830000     -69.49180000
C      -44.82890000     -36.85680000     -71.47700000
C      -43.71630000     -34.73870000     -71.24990000
C      -42.90820000     -35.48410000     -72.03880000
S      -46.12390000     -37.90480000     -71.10520000
S      -43.42720000     -37.04440000     -72.50080000
H      -42.01250000     -35.06780000     -72.60520000
