40
Properties=species:S:1:pos:R:3 #=T CELL(abcABC):=T 1.889726e+02=T 90.00000=T Traj:=T positionsangstrom=T Step:=T 0=T Bead:=T pbc="F F F"
C      -47.37570000     -37.21500000     -71.24080000
C      -47.20920000     -35.84350000     -70.97480000
C      -47.22720000     -34.93120000     -72.02930000
C      -47.28680000     -35.28910000     -73.36530000
C      -47.46510000     -36.70000000     -73.62540000
C      -47.50880000     -37.62830000     -72.59330000
H      -47.42450000     -37.89660000     -70.43130000
H      -47.13490000     -33.86110000     -71.77800000
H      -47.55840000     -37.00200000     -74.68410000
H      -47.69200000     -38.68420000     -72.78430000
C      -47.43720000     -34.32410000     -74.47620000
H      -48.09480000     -33.49270000     -74.16710000
H      -47.91930000     -34.76430000     -75.27640000
C      -47.00360000     -35.37900000     -69.58700000
H      -47.14220000     -34.25250000     -69.68810000
H      -47.80350000     -35.76960000     -68.97790000
S      -45.87010000     -33.50440000     -75.08230000
S      -45.49460000     -35.79560000     -68.79280000
C      -45.59990000     -32.16770000     -73.78590000
H      -45.90140000     -31.22570000     -74.24320000
H      -46.20840000     -32.44520000     -72.99780000
C      -44.24620000     -35.66830000     -70.04190000
H      -44.42760000     -36.33490000     -70.88620000
H      -43.26340000     -36.06710000     -69.58690000
C      -43.93120000     -34.30280000     -70.68660000
H      -42.99780000     -34.35350000     -71.25380000
H      -44.71220000     -34.28710000     -71.47390000
C      -44.17700000     -32.14350000     -73.26180000
H      -43.43500000     -31.82560000     -74.06750000
H      -43.83280000     -33.13460000     -72.91420000
C      -43.98150000     -31.14680000     -72.10690000
C      -44.11640000     -29.79660000     -72.22720000
C      -43.95850000     -31.68150000     -70.66250000
H      -44.30860000     -29.24490000     -73.13950000
C      -43.90530000     -30.60740000     -69.81010000
C      -43.97380000     -32.95420000     -69.96170000
C      -43.98420000     -32.76470000     -68.62070000
S      -44.08080000     -29.03280000     -70.63910000
S      -43.70520000     -31.03430000     -68.15490000
H      -43.88000000     -33.28380000     -67.78190000
