40
Properties=species:S:1:pos:R:3 #=T CELL(abcABC):=T 1.889726e+02=T 90.00000=T Traj:=T positionsangstrom=T Step:=T 0=T Bead:=T pbc="F F F"
C      -46.85320000     -37.17080000     -71.57420000
C      -46.98720000     -35.83230000     -71.26750000
C      -47.34010000     -34.89030000     -72.25290000
C      -47.42840000     -35.28220000     -73.64740000
C      -47.25570000     -36.65550000     -73.91590000
C      -46.92710000     -37.56290000     -72.91290000
H      -46.51340000     -37.84830000     -70.81940000
H      -47.34000000     -33.88780000     -71.94280000
H      -47.14760000     -36.93900000     -74.97200000
H      -46.62780000     -38.62040000     -73.17410000
C      -47.57680000     -34.21240000     -74.68130000
H      -48.30470000     -33.40330000     -74.35460000
H      -48.00240000     -34.56400000     -75.63520000
C      -46.82440000     -35.29080000     -69.88610000
H      -46.74970000     -34.20250000     -69.97070000
H      -47.72740000     -35.44500000     -69.34060000
S      -45.85100000     -33.51660000     -74.87410000
S      -45.54110000     -35.92320000     -68.71660000
C      -45.63830000     -32.32590000     -73.52340000
H      -46.08210000     -31.35810000     -73.72470000
H      -46.06780000     -32.74270000     -72.62100000
C      -43.99130000     -35.54070000     -69.83100000
H      -44.11150000     -36.26220000     -70.56900000
H      -43.10500000     -35.78340000     -69.17530000
C      -44.08550000     -34.29460000     -70.66640000
H      -43.19020000     -34.23740000     -71.26190000
H      -44.92480000     -34.34500000     -71.39020000
C      -44.14680000     -32.08410000     -73.23340000
H      -43.60800000     -31.60560000     -74.12340000
H      -43.83210000     -33.15080000     -72.96790000
C      -44.11320000     -31.22330000     -71.99180000
C      -43.93880000     -29.83650000     -72.12980000
C      -44.20790000     -31.61820000     -70.62860000
H      -43.79320000     -29.29210000     -73.08900000
C      -44.11700000     -30.61100000     -69.73490000
C      -44.19110000     -32.95060000     -69.93060000
C      -44.02200000     -32.70440000     -68.56620000
S      -43.92870000     -29.09230000     -70.50860000
S      -44.18220000     -31.03310000     -68.05380000
H      -44.25110000     -33.38810000     -67.72630000
