40
Properties=species:S:1:pos:R:3 #=T CELL(abcABC):=T 1.889726e+02=T 90.00000=T Traj:=T positionsangstrom=T Step:=T 0=T Bead:=T pbc="F F F"
C      -47.22280000     -37.22810000     -71.39860000
C      -47.21010000     -35.90770000     -71.03370000
C      -47.44240000     -34.94270000     -72.02890000
C      -47.61720000     -35.33180000     -73.35280000
C      -47.36120000     -36.65070000     -73.77390000
C      -47.23640000     -37.61440000     -72.76520000
H      -47.09520000     -38.03690000     -70.63130000
H      -47.44480000     -33.88680000     -71.67830000
H      -47.33340000     -36.95290000     -74.75980000
H      -47.09130000     -38.68060000     -73.05790000
C      -47.61210000     -34.26900000     -74.44180000
H      -48.15150000     -33.36780000     -74.19040000
H      -48.01980000     -34.61780000     -75.45540000
C      -47.21790000     -35.32750000     -69.57600000
H      -47.66320000     -34.33310000     -69.57880000
H      -47.96600000     -35.85240000     -68.90960000
S      -45.81000000     -33.65830000     -74.76070000
S      -45.63280000     -35.40420000     -68.68040000
C      -45.66020000     -32.39540000     -73.50400000
H      -46.24960000     -31.58050000     -73.67500000
H      -46.00520000     -32.87910000     -72.58210000
C      -44.40960000     -35.58200000     -70.06150000
H      -44.65390000     -36.31320000     -70.85250000
H      -43.47720000     -35.90780000     -69.61280000
C      -44.04390000     -34.29880000     -70.87590000
H      -43.01840000     -34.39530000     -71.25690000
H      -44.75720000     -34.27420000     -71.66510000
C      -44.21750000     -31.95300000     -73.41670000
H      -43.89600000     -31.35740000     -74.30380000
H      -43.48040000     -32.77260000     -73.29510000
C      -44.08160000     -31.12930000     -72.11150000
C      -44.03900000     -29.74460000     -72.13170000
C      -44.07390000     -31.68790000     -70.81950000
H      -44.06140000     -29.07750000     -73.01650000
C      -43.94700000     -30.64180000     -69.84270000
C      -43.99830000     -33.01130000     -70.17080000
C      -43.71980000     -32.92070000     -68.85440000
S      -43.95930000     -29.03480000     -70.49920000
S      -43.47060000     -31.23030000     -68.29570000
H      -43.59450000     -33.79190000     -68.25300000
