40
Properties=species:S:1:pos:R:3 #=T CELL(abcABC):=T 1.889726e+02=T 90.00000=T Traj:=T positionsangstrom=T Step:=T 0=T Bead:=T pbc="F F F"
C      -46.89730000     -37.06860000     -71.41090000
C      -47.15020000     -35.73610000     -71.13090000
C      -47.38010000     -34.78200000     -72.16980000
C      -47.45650000     -35.22010000     -73.49550000
C      -47.28700000     -36.59430000     -73.71270000
C      -47.07190000     -37.56080000     -72.69380000
H      -46.75370000     -37.80110000     -70.57500000
H      -47.46420000     -33.73380000     -71.92830000
H      -47.60610000     -36.99090000     -74.77270000
H      -46.94280000     -38.63020000     -72.90750000
C      -47.47010000     -34.23530000     -74.66910000
H      -48.04440000     -33.39540000     -74.39150000
H      -47.88320000     -34.68080000     -75.56840000
C      -47.02260000     -35.23900000     -69.74310000
H      -46.81200000     -34.17040000     -69.63720000
H      -47.93690000     -35.55440000     -69.19270000
S      -45.76840000     -33.59030000     -75.10630000
S      -45.57610000     -36.04650000     -68.79410000
C      -45.62470000     -32.29060000     -73.84220000
H      -46.07770000     -31.40560000     -74.19760000
H      -46.27570000     -32.64200000     -72.99420000
C      -43.93590000     -35.47260000     -69.63360000
H      -43.52410000     -36.39720000     -70.11300000
H      -43.22430000     -35.09900000     -68.89550000
C      -44.07150000     -34.27110000     -70.61200000
H      -43.07460000     -34.19270000     -71.11730000
H      -44.76950000     -34.59650000     -71.39170000
C      -44.23610000     -32.10720000     -73.30080000
H      -43.66500000     -31.66810000     -74.09300000
H      -43.70000000     -32.98180000     -72.92660000
C      -44.15870000     -31.21630000     -72.06120000
C      -44.06520000     -29.80850000     -72.13630000
C      -44.06230000     -31.63980000     -70.68030000
H      -44.05120000     -29.12850000     -73.03880000
C      -43.88730000     -30.59480000     -69.70310000
C      -44.21260000     -32.89890000     -69.97110000
C      -44.16390000     -32.73400000     -68.60920000
S      -43.99810000     -29.08480000     -70.54860000
S      -43.94680000     -31.08970000     -68.03990000
H      -44.30130000     -33.52430000     -67.94700000
