40
Properties=species:S:1:pos:R:3 #=T CELL(abcABC):=T 1.889726e+02=T 90.00000=T Traj:=T positionsangstrom=T Step:=T 0=T Bead:=T pbc="F F F"
C      -47.18680000     -37.19160000     -71.27320000
C      -47.44580000     -35.82640000     -70.98480000
C      -47.68050000     -34.97410000     -72.06020000
C      -47.68230000     -35.39760000     -73.41140000
C      -47.35400000     -36.78570000     -73.66640000
C      -47.09660000     -37.62110000     -72.60540000
H      -47.10340000     -37.90730000     -70.41880000
H      -47.92840000     -33.88780000     -71.91390000
H      -47.30080000     -37.16470000     -74.66430000
H      -47.06470000     -38.64140000     -72.86850000
C      -47.66470000     -34.39840000     -74.49470000
H      -48.30490000     -33.55580000     -74.26350000
H      -48.00770000     -34.85170000     -75.41790000
C      -47.50280000     -35.48110000     -69.57480000
H      -47.90430000     -34.47870000     -69.47470000
H      -48.07490000     -36.25730000     -69.05560000
S      -45.89100000     -33.64670000     -74.86490000
S      -45.76330000     -35.41990000     -68.85030000
C      -45.73880000     -32.29480000     -73.63100000
H      -46.30350000     -31.40370000     -73.97150000
H      -46.18250000     -32.60510000     -72.65760000
C      -44.41350000     -35.45860000     -70.15200000
H      -44.61390000     -36.45230000     -70.82780000
H      -43.60750000     -35.64500000     -69.48830000
C      -44.30080000     -34.14280000     -70.92240000
H      -43.68360000     -34.34960000     -71.83790000
H      -45.26490000     -33.85150000     -71.40690000
C      -44.25040000     -31.97980000     -73.38940000
H      -43.95580000     -31.38970000     -74.29230000
H      -43.71440000     -32.92000000     -73.29600000
C      -44.09600000     -31.15340000     -72.02790000
C      -44.02860000     -29.76300000     -72.12270000
C      -43.82270000     -31.61370000     -70.73600000
H      -44.37380000     -29.11960000     -72.93290000
C      -43.54710000     -30.62090000     -69.79380000
C      -43.83650000     -32.97880000     -70.09030000
C      -43.48310000     -32.87160000     -68.76480000
S      -43.73460000     -29.00030000     -70.52240000
S      -43.39420000     -31.28740000     -68.16570000
H      -43.18010000     -33.74160000     -68.12800000
