40
Properties=species:S:1:pos:R:3 #=T CELL(abcABC):=T 1.889726e+02=T 90.00000=T Traj:=T positionsangstrom=T Step:=T 0=T Bead:=T pbc="F F F"
C      -45.63190000     -36.85070000     -72.61190000
C      -45.23790000     -35.52620000     -72.64880000
C      -44.67780000     -34.92580000     -71.54790000
C      -44.78380000     -35.50840000     -70.30900000
C      -45.37410000     -36.80600000     -70.19390000
C      -45.79770000     -37.46510000     -71.34790000
H      -46.00980000     -37.32770000     -73.52830000
H      -44.26180000     -33.91400000     -71.65010000
H      -45.63030000     -37.08770000     -69.22770000
H      -46.23090000     -38.47460000     -71.36790000
C      -44.36720000     -34.84220000     -69.03690000
H      -43.95810000     -33.85310000     -69.17100000
H      -43.54130000     -35.44040000     -68.48380000
C      -45.24090000     -34.76890000     -73.90650000
H      -44.64570000     -33.82120000     -73.73710000
H      -44.56040000     -35.27040000     -74.57300000
S      -45.99850000     -34.68690000     -68.05750000
S      -46.97300000     -34.31370000     -74.53280000
C      -47.00480000     -33.79570000     -69.30200000
H      -46.82790000     -34.25100000     -70.24430000
H      -48.00050000     -34.07900000     -68.96890000
C      -47.59140000     -33.46000000     -72.96430000
H      -47.00690000     -33.83720000     -72.08940000
H      -48.64110000     -33.62510000     -72.84510000
C      -47.31830000     -31.89870000     -72.87290000
H      -47.62240000     -31.44680000     -73.82550000
H      -47.95180000     -31.45330000     -72.15000000
C      -46.87420000     -32.22370000     -69.31130000
H      -47.15150000     -31.89890000     -68.25560000
H      -47.66110000     -31.78360000     -69.95640000
C      -45.56100000     -31.67960000     -69.77760000
C      -44.51670000     -31.35380000     -68.89260000
C      -45.24030000     -31.39510000     -71.19150000
H      -44.55340000     -31.47620000     -67.83790000
C      -43.82000000     -31.18960000     -71.29110000
C      -45.83120000     -31.56890000     -72.55680000
C      -44.87590000     -31.36890000     -73.52440000
S      -42.98450000     -31.03080000     -69.74310000
S      -43.25650000     -31.04170000     -72.92470000
H      -45.17160000     -31.28310000     -74.61500000
