40
Properties=species:S:1:pos:R:3 #=T CELL(abcABC):=T 1.889726e+02=T 90.00000=T Traj:=T positionsangstrom=T Step:=T 0=T Bead:=T pbc="F F F"
C      -45.98680000     -36.82630000     -72.50400000
C      -45.31800000     -35.58120000     -72.53990000
C      -44.79060000     -35.00530000     -71.33640000
C      -44.81700000     -35.76860000     -70.20570000
C      -45.26700000     -37.10170000     -70.30240000
C      -45.89540000     -37.68120000     -71.40440000
H      -46.33770000     -37.10910000     -73.49280000
H      -44.38310000     -34.00190000     -71.34740000
H      -45.06680000     -37.71090000     -69.44200000
H      -46.27710000     -38.78790000     -71.40390000
C      -44.58710000     -35.10380000     -68.88670000
H      -44.03280000     -34.19200000     -68.95840000
H      -44.00820000     -35.73010000     -68.16820000
C      -45.28390000     -34.86290000     -73.82200000
H      -44.48610000     -34.13830000     -73.82270000
H      -45.04820000     -35.63510000     -74.55650000
S      -46.17570000     -34.57400000     -68.05400000
S      -46.78270000     -33.97140000     -74.41530000
C      -47.17520000     -33.66740000     -69.30260000
H      -47.04750000     -34.13740000     -70.29530000
H      -48.21790000     -33.70460000     -69.01300000
C      -47.68140000     -33.18700000     -73.02860000
H      -47.58370000     -33.80690000     -72.16160000
H      -48.78340000     -33.38600000     -73.30000000
C      -47.28960000     -31.73460000     -72.72410000
H      -47.59200000     -31.05400000     -73.50520000
H      -47.73370000     -31.46700000     -71.71350000
C      -46.78280000     -32.11400000     -69.34430000
H      -46.79680000     -31.80740000     -68.29950000
H      -47.53470000     -31.50480000     -69.78920000
C      -45.40760000     -31.73540000     -69.86710000
C      -44.32890000     -31.54160000     -69.02340000
C      -45.05020000     -31.60560000     -71.26600000
H      -44.28050000     -31.48060000     -67.96790000
C      -43.74840000     -31.20600000     -71.39620000
C      -45.77130000     -31.53360000     -72.55550000
C      -44.89510000     -31.47450000     -73.56560000
S      -42.89510000     -31.06430000     -69.85520000
S      -43.20680000     -31.02220000     -73.03280000
H      -45.11290000     -31.55740000     -74.66180000
