40
Properties=species:S:1:pos:R:3 #=T CELL(abcABC):=T 1.889726e+02=T 90.00000=T Traj:=T positionsangstrom=T Step:=T 0=T Bead:=T pbc="F F F"
C      -41.74270000     -33.30890000     -72.54880000
C      -42.45060000     -34.26560000     -73.30240000
C      -43.41220000     -33.77530000     -74.15200000
C      -43.57050000     -32.45170000     -74.52070000
C      -42.73970000     -31.51610000     -73.86220000
C      -41.87750000     -31.93930000     -72.83040000
H      -41.05580000     -33.74100000     -71.84730000
H      -43.97640000     -34.53760000     -74.70260000
H      -42.67420000     -30.47800000     -73.99950000
H      -41.26030000     -31.21250000     -72.29080000
C      -44.69620000     -31.97710000     -75.37210000
H      -44.69640000     -32.60480000     -76.32390000
H      -44.54420000     -30.90410000     -75.57560000
C      -42.30020000     -35.75620000     -72.98320000
H      -42.12760000     -36.44940000     -73.75190000
H      -41.36720000     -35.84190000     -72.39440000
S      -46.39020000     -32.22230000     -74.53400000
S      -43.65770000     -36.52980000     -71.97590000
C      -46.06340000     -32.18580000     -72.77600000
H      -45.29980000     -32.93900000     -72.50470000
H      -45.93610000     -31.12170000     -72.41770000
C      -44.07220000     -35.22960000     -70.72730000
H      -43.82290000     -34.21190000     -71.19480000
H      -43.56890000     -35.36180000     -69.74690000
C      -45.57250000     -35.29320000     -70.50120000
H      -46.06780000     -34.93770000     -71.45320000
H      -45.91250000     -36.27110000     -70.44450000
C      -47.36760000     -32.75710000     -72.01900000
H      -47.40880000     -33.81510000     -72.07280000
H      -48.20730000     -32.32300000     -72.44670000
C      -47.40940000     -32.52560000     -70.54050000
C      -48.16510000     -31.46660000     -70.04750000
C      -46.83360000     -33.31360000     -69.42270000
H      -48.79830000     -30.81640000     -70.66720000
C      -47.14530000     -32.79410000     -68.18470000
C      -46.02430000     -34.48310000     -69.32890000
C      -45.72820000     -34.80910000     -68.02090000
S      -48.13270000     -31.38720000     -68.32730000
S      -46.60910000     -33.69860000     -66.88600000
H      -45.10360000     -35.58010000     -67.56860000
