40
Properties=species:S:1:pos:R:3 #=T CELL(abcABC):=T 1.889726e+02=T 90.00000=T Traj:=T positionsangstrom=T Step:=T 0=T Bead:=T pbc="F F F"
C      -45.16730000     -37.13190000     -72.66380000
C      -44.81230000     -35.72480000     -72.73390000
C      -44.49740000     -35.09030000     -71.54450000
C      -44.57310000     -35.80050000     -70.37710000
C      -44.83240000     -37.17470000     -70.24680000
C      -45.12530000     -37.83830000     -71.45330000
H      -45.29600000     -37.61980000     -73.62650000
H      -44.32390000     -34.01570000     -71.53380000
H      -44.90360000     -37.70260000     -69.32840000
H      -45.50960000     -38.87270000     -71.26670000
C      -44.29410000     -34.97910000     -69.04090000
H      -44.01320000     -33.92170000     -69.29250000
H      -43.55270000     -35.33770000     -68.43110000
C      -44.82560000     -34.98940000     -74.01170000
H      -44.21680000     -34.11190000     -74.05520000
H      -44.45040000     -35.54900000     -74.85860000
S      -45.91710000     -34.75850000     -68.15300000
S      -46.51870000     -34.44160000     -74.64950000
C      -46.85030000     -33.95480000     -69.55320000
H      -46.30430000     -34.17690000     -70.42780000
H      -47.83000000     -34.43120000     -69.63410000
C      -47.39990000     -33.93120000     -73.06250000
H      -47.16800000     -34.60850000     -72.19530000
H      -48.43290000     -34.07350000     -73.28780000
C      -47.24330000     -32.44430000     -72.73170000
H      -47.61270000     -31.92640000     -73.64530000
H      -47.98400000     -32.16980000     -72.01280000
C      -47.12370000     -32.45000000     -69.42010000
H      -47.42630000     -32.26950000     -68.33040000
H      -48.04740000     -32.04840000     -69.91440000
C      -45.90410000     -31.58690000     -69.78040000
C      -45.09650000     -30.98790000     -68.83150000
C      -45.47270000     -31.41610000     -71.11550000
H      -45.04840000     -31.14780000     -67.78580000
C      -44.32470000     -30.71370000     -71.12450000
C      -45.89240000     -31.81980000     -72.40750000
C      -44.99510000     -31.36500000     -73.35750000
S      -43.70590000     -30.24540000     -69.56510000
S      -43.63010000     -30.42530000     -72.78120000
H      -45.18130000     -31.56200000     -74.35730000
