40
Properties=species:S:1:pos:R:3 #=T CELL(abcABC):=T 1.889726e+02=T 90.00000=T Traj:=T positionsangstrom=T Step:=T 0=T Bead:=T pbc="F F F"
C      -44.94510000     -37.19030000     -72.74380000
C      -44.69110000     -35.79410000     -72.68980000
C      -44.57270000     -35.11070000     -71.44320000
C      -44.62350000     -35.79990000     -70.24320000
C      -44.89250000     -37.13660000     -70.31070000
C      -45.07920000     -37.80040000     -71.51060000
H      -44.88010000     -37.70800000     -73.62040000
H      -44.27680000     -34.08570000     -71.42880000
H      -44.91230000     -37.65600000     -69.31170000
H      -45.37130000     -38.83020000     -71.50760000
C      -44.38680000     -35.21460000     -68.92170000
H      -43.80140000     -34.26240000     -68.84500000
H      -43.99710000     -35.93670000     -68.18290000
C      -44.42180000     -35.02610000     -73.96070000
H      -43.60440000     -34.20830000     -73.89350000
H      -44.05610000     -35.62330000     -74.80510000
S      -46.01210000     -34.76990000     -68.03490000
S      -45.99180000     -34.24760000     -74.57000000
C      -47.04530000     -33.96240000     -69.43070000
H      -46.57430000     -34.29620000     -70.42590000
H      -48.02100000     -34.44270000     -69.31290000
C      -47.11330000     -34.08940000     -73.19600000
H      -46.77410000     -34.70820000     -72.31540000
H      -48.14790000     -34.45570000     -73.32620000
C      -47.34690000     -32.61810000     -72.76530000
H      -48.02840000     -32.21540000     -73.54080000
H      -48.01910000     -32.76220000     -71.92860000
C      -47.09750000     -32.45680000     -69.24070000
H      -47.28890000     -32.21530000     -68.20360000
H      -48.00020000     -32.18120000     -69.78360000
C      -45.85810000     -31.74370000     -69.74320000
C      -45.00260000     -31.10460000     -68.89580000
C      -45.45150000     -31.56830000     -71.14430000
H      -44.99530000     -31.11090000     -67.78520000
C      -44.33450000     -30.65750000     -71.27750000
C      -46.13460000     -31.77450000     -72.43040000
C      -45.50910000     -31.04160000     -73.39360000
S      -43.72680000     -30.26670000     -69.73590000
S      -44.03940000     -30.26300000     -72.89230000
H      -45.70010000     -30.91030000     -74.46060000
