40
Properties=species:S:1:pos:R:3 #=T CELL(abcABC):=T 1.889726e+02=T 90.00000=T Traj:=T positionsangstrom=T Step:=T 0=T Bead:=T pbc="F F F"
C      -44.60640000     -36.69210000     -72.81320000
C      -44.54710000     -35.28820000     -72.67550000
C      -44.36630000     -34.72890000     -71.39440000
C      -44.46770000     -35.53940000     -70.21420000
C      -44.78200000     -36.88850000     -70.40000000
C      -44.71690000     -37.47380000     -71.64440000
H      -44.60540000     -37.12190000     -73.88750000
H      -44.03140000     -33.67400000     -71.27560000
H      -45.09970000     -37.51260000     -69.56030000
H      -44.99020000     -38.49980000     -71.74390000
C      -44.34490000     -34.89960000     -68.86940000
H      -44.00530000     -33.90760000     -68.89860000
H      -43.58480000     -35.48220000     -68.21610000
C      -44.55250000     -34.36060000     -73.85750000
H      -44.22460000     -33.36480000     -73.61330000
H      -43.91060000     -34.72410000     -74.64960000
S      -45.91130000     -34.75350000     -67.84240000
S      -46.37250000     -34.33000000     -74.54560000
C      -47.08850000     -34.16550000     -69.06220000
H      -46.82140000     -34.66610000     -69.99480000
H      -48.15620000     -34.59100000     -68.88150000
C      -47.37100000     -34.01260000     -73.00460000
H      -47.14580000     -34.64280000     -72.18860000
H      -48.45570000     -34.31090000     -73.29850000
C      -47.57170000     -32.51720000     -72.84110000
H      -47.98230000     -32.21180000     -73.86390000
H      -48.42080000     -32.29580000     -72.06770000
C      -47.21850000     -32.63530000     -69.29790000
H      -47.56980000     -32.11870000     -68.42350000
H      -48.00180000     -32.56890000     -70.05350000
C      -45.93750000     -31.96020000     -69.84350000
C      -44.90520000     -31.56050000     -69.03500000
C      -45.66160000     -31.57340000     -71.21680000
H      -44.88940000     -31.72840000     -67.99010000
C      -44.46910000     -30.90930000     -71.32690000
C      -46.25150000     -31.76060000     -72.54940000
C      -45.48130000     -31.17260000     -73.54930000
S      -43.54760000     -30.75430000     -69.81430000
S      -43.96230000     -30.53540000     -72.91960000
H      -45.78730000     -31.16240000     -74.58360000
