40
Properties=species:S:1:pos:R:3 #=T CELL(abcABC):=T 1.889726e+02=T 90.00000=T Traj:=T positionsangstrom=T Step:=T 0=T Bead:=T pbc="F F F"
C      -45.03710000     -36.73670000     -72.95600000
C      -44.67970000     -35.35700000     -72.82540000
C      -44.13300000     -34.88770000     -71.61770000
C      -44.28300000     -35.63800000     -70.41480000
C      -44.57820000     -36.98120000     -70.57730000
C      -44.98720000     -37.51640000     -71.80980000
H      -45.45380000     -37.05500000     -73.84090000
H      -43.73320000     -33.89410000     -71.58630000
H      -44.51750000     -37.60040000     -69.70670000
H      -45.19260000     -38.60990000     -71.92910000
C      -44.07730000     -34.96220000     -69.06570000
H      -43.82000000     -33.93310000     -69.28620000
H      -43.19850000     -35.28340000     -68.50680000
C      -44.74790000     -34.47020000     -74.04420000
H      -44.21480000     -33.52080000     -73.82220000
H      -44.37930000     -35.03310000     -74.92350000
S      -45.58330000     -35.16160000     -68.06180000
S      -46.49800000     -34.18260000     -74.56580000
C      -46.93190000     -34.34120000     -69.15990000
H      -46.86650000     -34.87600000     -70.11860000
H      -47.85070000     -34.61680000     -68.74820000
C      -47.34270000     -33.86250000     -72.91690000
H      -46.68960000     -34.35990000     -72.14610000
H      -48.27100000     -34.37770000     -73.03860000
C      -47.69740000     -32.37960000     -72.53260000
H      -48.25720000     -31.89940000     -73.36800000
H      -48.46930000     -32.46730000     -71.66750000
C      -46.96970000     -32.73040000     -69.06970000
H      -47.22700000     -32.43560000     -68.06230000
H      -47.77020000     -32.45390000     -69.67020000
C      -45.75750000     -32.01940000     -69.62240000
C      -44.63290000     -31.67560000     -68.88910000
C      -45.71570000     -31.52620000     -71.02220000
H      -44.46640000     -31.72050000     -67.83460000
C      -44.51810000     -30.79920000     -71.22880000
C      -46.49880000     -31.58030000     -72.23590000
C      -45.83450000     -30.91480000     -73.26650000
S      -43.49250000     -30.71220000     -69.81590000
S      -44.22450000     -30.21540000     -72.82520000
H      -46.17200000     -30.80540000     -74.31380000
