40
Properties=species:S:1:pos:R:3 #=T CELL(abcABC):=T 1.889726e+02=T 90.00000=T Traj:=T positionsangstrom=T Step:=T 0=T Bead:=T pbc="F F F"
C      -46.13780000     -37.36140000     -71.95900000
C      -46.70290000     -36.07130000     -72.02300000
C      -46.44240000     -35.19500000     -73.11840000
C      -45.55430000     -35.61550000     -74.11610000
C      -44.89740000     -36.88070000     -73.94300000
C      -45.19430000     -37.77940000     -72.91460000
H      -46.39410000     -38.08120000     -71.23020000
H      -46.94890000     -34.28100000     -73.20230000
H      -44.20350000     -37.12090000     -74.75650000
H      -44.67630000     -38.73750000     -72.77140000
C      -45.19590000     -34.64460000     -75.15380000
H      -46.03930000     -33.91370000     -75.30430000
H      -44.97180000     -35.10110000     -76.14260000
C      -47.66990000     -35.59200000     -71.04980000
H      -48.15540000     -34.72780000     -71.48840000
H      -48.41410000     -36.40360000     -70.81980000
S      -43.69490000     -33.68510000     -74.63040000
S      -47.00020000     -35.18800000     -69.40330000
C      -44.38350000     -32.41620000     -73.53980000
H      -44.66270000     -31.51970000     -74.05320000
H      -45.31170000     -32.78750000     -73.10350000
C      -45.26010000     -35.43360000     -69.52120000
H      -45.02320000     -36.35460000     -70.12140000
H      -44.86750000     -35.50250000     -68.50040000
C      -44.51780000     -34.17210000     -70.15730000
H      -43.42480000     -34.34980000     -70.33760000
H      -44.84220000     -34.00480000     -71.12750000
C      -43.43870000     -31.93980000     -72.45950000
H      -42.61020000     -31.47100000     -73.02740000
H      -42.99140000     -32.90040000     -72.09120000
C      -44.19040000     -31.09330000     -71.40510000
C      -44.42960000     -29.76720000     -71.61060000
C      -44.65780000     -31.56650000     -70.13760000
H      -44.17220000     -29.25280000     -72.54160000
C      -45.31210000     -30.52240000     -69.40940000
C      -44.74920000     -32.84270000     -69.45360000
C      -45.31000000     -32.74060000     -68.20920000
S      -45.35590000     -28.97290000     -70.29960000
S      -45.80350000     -31.04480000     -67.84810000
H      -45.60230000     -33.57540000     -67.64280000
