40
Properties=species:S:1:pos:R:3 #=T CELL(abcABC):=T 1.889726e+02=T 90.00000=T Traj:=T positionsangstrom=T Step:=T 0=T Bead:=T pbc="F F F"
C      -46.28380000     -37.49380000     -71.95420000
C      -46.67650000     -36.12170000     -71.97280000
C      -46.35140000     -35.38050000     -73.11210000
C      -45.47210000     -35.91580000     -74.12390000
C      -44.92050000     -37.19420000     -73.88750000
C      -45.38010000     -38.01890000     -72.86110000
H      -46.66560000     -38.23430000     -71.19770000
H      -46.74590000     -34.32570000     -73.23970000
H      -44.08290000     -37.51710000     -74.42480000
H      -45.07840000     -39.06870000     -72.82230000
C      -45.06820000     -34.92430000     -75.22170000
H      -46.02070000     -34.42490000     -75.53570000
H      -44.61350000     -35.42950000     -76.14740000
C      -47.52030000     -35.46340000     -70.98530000
H      -47.77650000     -34.40860000     -71.19890000
H      -48.50560000     -35.90340000     -70.90590000
S      -43.75380000     -33.71300000     -74.68530000
S      -46.90170000     -35.39220000     -69.25660000
C      -44.57460000     -32.68820000     -73.36360000
H      -45.27340000     -32.02120000     -73.88270000
H      -45.19350000     -33.20360000     -72.72050000
C      -45.02780000     -35.17660000     -69.48530000
H      -44.60330000     -36.04370000     -70.02030000
H      -44.57270000     -35.34080000     -68.49950000
C      -44.51000000     -33.99980000     -70.18230000
H      -43.47940000     -34.01490000     -70.12020000
H      -44.84640000     -33.99620000     -71.26350000
C      -43.56790000     -31.84490000     -72.55070000
H      -42.94010000     -31.27050000     -73.26800000
H      -42.91400000     -32.62180000     -72.19880000
C      -44.22270000     -30.99910000     -71.49140000
C      -44.41490000     -29.62720000     -71.65400000
C      -44.87700000     -31.43890000     -70.21470000
H      -44.18440000     -29.06830000     -72.52910000
C      -45.36360000     -30.37100000     -69.51280000
C      -44.90900000     -32.71770000     -69.54680000
C      -45.50140000     -32.55280000     -68.29460000
S      -45.10580000     -28.81250000     -70.24590000
S      -45.87570000     -30.86190000     -67.93210000
H      -45.61000000     -33.21750000     -67.45420000
