40
Properties=species:S:1:pos:R:3 #=T CELL(abcABC):=T 1.889726e+02=T 90.00000=T Traj:=T positionsangstrom=T Step:=T 0=T Bead:=T pbc="F F F"
C      -46.07980000     -37.35910000     -71.97190000
C      -46.79420000     -36.16730000     -72.12640000
C      -46.56800000     -35.25410000     -73.16190000
C      -45.51750000     -35.58860000     -74.05500000
C      -44.80420000     -36.77910000     -73.89470000
C      -45.12060000     -37.70610000     -72.90660000
H      -46.36200000     -37.98000000     -71.16760000
H      -47.01130000     -34.26580000     -73.26280000
H      -43.83080000     -36.96750000     -74.49380000
H      -44.56260000     -38.63940000     -72.79910000
C      -45.06770000     -34.61760000     -75.15590000
H      -45.83350000     -33.95810000     -75.50150000
H      -44.80150000     -35.23680000     -76.01340000
C      -47.78370000     -35.86040000     -71.06620000
H      -48.59720000     -35.25040000     -71.41660000
H      -48.28820000     -36.76930000     -70.74130000
S      -43.59320000     -33.56020000     -74.72310000
S      -47.07600000     -35.25500000     -69.42370000
C      -44.41220000     -32.36760000     -73.50630000
H      -44.89640000     -31.53020000     -74.11080000
H      -45.25860000     -32.92810000     -73.06470000
C      -45.26150000     -35.35790000     -69.53440000
H      -45.04760000     -36.22580000     -70.10850000
H      -45.03270000     -35.73530000     -68.56700000
C      -44.42800000     -34.17400000     -70.05470000
H      -43.41070000     -34.32630000     -69.73860000
H      -44.54380000     -34.09040000     -71.13430000
C      -43.46070000     -31.87070000     -72.47410000
H      -42.74510000     -31.15530000     -72.86950000
H      -42.91960000     -32.60280000     -71.95090000
C      -44.28240000     -31.07980000     -71.40090000
C      -44.59320000     -29.79560000     -71.61890000
C      -44.75680000     -31.58960000     -70.14940000
H      -44.14710000     -29.20230000     -72.47570000
C      -45.29180000     -30.51680000     -69.38500000
C      -44.80970000     -32.83980000     -69.46270000
C      -45.27730000     -32.65890000     -68.22570000
S      -45.37440000     -29.00520000     -70.26390000
S      -45.72670000     -31.08100000     -67.82040000
H      -45.53420000     -33.49510000     -67.62540000
