40
Properties=species:S:1:pos:R:3 #=T CELL(abcABC):=T 1.889726e+02=T 90.00000=T Traj:=T positionsangstrom=T Step:=T 0=T Bead:=T pbc="F F F"
C      -45.67920000     -37.71190000     -71.87930000
C      -46.54530000     -36.56660000     -71.98750000
C      -46.26640000     -35.73620000     -73.06330000
C      -45.18000000     -35.86570000     -73.91720000
C      -44.25750000     -36.91560000     -73.78240000
C      -44.59310000     -37.85190000     -72.75910000
H      -45.84040000     -38.42510000     -71.12250000
H      -46.85000000     -34.92220000     -73.18080000
H      -43.43620000     -37.01560000     -74.47160000
H      -43.96520000     -38.73350000     -72.62740000
C      -45.07360000     -34.86800000     -75.05140000
H      -46.06030000     -34.38860000     -75.21330000
H      -44.75890000     -35.34390000     -76.03980000
C      -47.65880000     -36.41240000     -71.00450000
H      -48.52690000     -35.88820000     -71.42390000
H      -47.90010000     -37.41240000     -70.72470000
S      -43.87780000     -33.46350000     -74.71700000
S      -47.15120000     -35.38060000     -69.52580000
C      -44.85020000     -32.52940000     -73.40990000
H      -45.46290000     -31.73440000     -73.94170000
H      -45.42890000     -33.14470000     -72.76450000
C      -45.34050000     -35.27930000     -69.44310000
H      -45.01880000     -36.03920000     -70.05220000
H      -45.09940000     -35.46520000     -68.36650000
C      -44.84910000     -33.97540000     -70.12150000
H      -43.76000000     -33.93120000     -70.04630000
H      -45.01390000     -33.97480000     -71.21400000
C      -43.70990000     -31.83360000     -72.59010000
H      -43.11460000     -31.17820000     -73.25860000
H      -43.09950000     -32.63300000     -72.12610000
C      -44.27310000     -30.95150000     -71.47000000
C      -44.14840000     -29.54770000     -71.53080000
C      -44.95340000     -31.36210000     -70.26840000
H      -43.59090000     -28.97800000     -72.20580000
C      -45.35720000     -30.29050000     -69.50030000
C      -45.28180000     -32.60440000     -69.65890000
C      -45.93500000     -32.42780000     -68.46130000
S      -44.76670000     -28.78070000     -70.09150000
S      -46.10390000     -30.78270000     -68.00870000
H      -46.04100000     -33.19250000     -67.69760000
