40
Properties=species:S:1:pos:R:3 #=T CELL(abcABC):=T 1.889726e+02=T 90.00000=T Traj:=T positionsangstrom=T Step:=T 0=T Bead:=T pbc="F F F"
C      -45.06280000     -37.73520000     -71.84420000
C      -46.21080000     -36.89590000     -71.83720000
C      -46.40840000     -35.94730000     -72.81560000
C      -45.45440000     -35.77500000     -73.86730000
C      -44.26560000     -36.53070000     -73.81240000
C      -44.18760000     -37.58490000     -72.88760000
H      -45.09490000     -38.54410000     -71.02870000
H      -47.35390000     -35.40010000     -72.81040000
H      -43.53440000     -36.43460000     -74.58640000
H      -43.34680000     -38.19240000     -72.96260000
C      -45.61630000     -34.64230000     -74.89230000
H      -46.62000000     -34.21400000     -74.82590000
H      -45.54610000     -35.09720000     -75.91490000
C      -47.22360000     -36.98630000     -70.70160000
H      -48.27150000     -37.06170000     -71.12670000
H      -47.21600000     -37.86800000     -70.08590000
S      -44.22200000     -33.42390000     -74.91760000
S      -47.26580000     -35.52620000     -69.53240000
C      -44.63430000     -32.44270000     -73.45250000
H      -45.07850000     -31.53280000     -73.81150000
H      -45.40540000     -32.98040000     -72.90110000
C      -45.46540000     -35.18260000     -69.39240000
H      -44.84810000     -36.06930000     -69.58370000
H      -45.35350000     -34.76970000     -68.31110000
C      -44.94940000     -33.95380000     -70.16080000
H      -43.84280000     -34.04000000     -70.28130000
H      -45.42420000     -33.91380000     -71.18730000
C      -43.55070000     -32.02070000     -72.46660000
H      -42.68700000     -31.57050000     -72.85180000
H      -43.21230000     -32.95670000     -72.01760000
C      -44.10890000     -31.05130000     -71.42660000
C      -43.95810000     -29.65320000     -71.55170000
C      -44.80230000     -31.36340000     -70.16410000
H      -43.40140000     -29.00460000     -72.25330000
C      -45.15980000     -30.23830000     -69.44400000
C      -45.26480000     -32.57510000     -69.60580000
C      -46.05250000     -32.31090000     -68.46590000
S      -44.76470000     -28.72710000     -70.26450000
S      -46.24460000     -30.66190000     -68.11270000
H      -46.51140000     -33.02710000     -67.76420000
