40
Properties=species:S:1:pos:R:3 #=T CELL(abcABC):=T 1.889726e+02=T 90.00000=T Traj:=T positionsangstrom=T Step:=T 0=T Bead:=T pbc="F F F"
C      -44.45080000     -37.22620000     -69.32330000
C      -43.67280000     -36.09590000     -69.59000000
C      -43.29320000     -35.80090000     -70.88200000
C      -43.81260000     -36.54580000     -71.91520000
C      -44.73990000     -37.60250000     -71.70970000
C      -45.03070000     -37.90840000     -70.39430000
H      -44.84330000     -37.46700000     -68.37660000
H      -42.71140000     -34.92590000     -70.88950000
H      -45.16100000     -38.12640000     -72.65900000
H      -45.83250000     -38.54950000     -70.12920000
C      -43.41150000     -36.07220000     -73.25500000
H      -43.64320000     -36.82260000     -74.00940000
H      -42.30460000     -35.79370000     -73.33570000
C      -43.30370000     -35.18640000     -68.47420000
H      -44.12180000     -35.02590000     -67.73040000
H      -42.47340000     -35.55140000     -67.92150000
S      -44.37340000     -34.55760000     -73.77860000
S      -42.62870000     -33.46640000     -68.95870000
C      -46.18370000     -34.84740000     -73.34450000
H      -46.73370000     -34.58800000     -74.18680000
H      -46.31030000     -35.91750000     -73.24150000
C      -43.93780000     -32.53240000     -69.77800000
H      -44.05800000     -33.00880000     -70.76410000
H      -43.50700000     -31.50520000     -69.94580000
C      -45.37940000     -32.47330000     -69.21780000
H      -45.82280000     -33.46020000     -69.35890000
H      -45.34360000     -32.16400000     -68.14830000
C      -46.78540000     -34.12700000     -72.09760000
H      -46.35070000     -34.34790000     -71.14650000
H      -47.80440000     -34.63850000     -72.05100000
C      -47.05950000     -32.66800000     -72.33880000
C      -47.67280000     -32.23140000     -73.47000000
C      -46.65990000     -31.54770000     -71.39960000
H      -48.03200000     -32.85800000     -74.30300000
C      -47.10040000     -30.32600000     -71.94420000
C      -46.15440000     -31.48550000     -70.10610000
C      -46.16890000     -30.17880000     -69.65170000
S      -47.82660000     -30.52430000     -73.47830000
S      -46.81180000     -28.99560000     -70.86590000
H      -45.84990000     -29.79920000     -68.69330000
