40
Properties=species:S:1:pos:R:3 #=T CELL(abcABC):=T 1.889726e+02=T 90.00000=T Traj:=T positionsangstrom=T Step:=T 0=T Bead:=T pbc="F F F"
C      -44.65930000     -36.97240000     -69.24410000
C      -43.76020000     -35.94410000     -69.51430000
C      -43.29450000     -35.70590000     -70.82420000
C      -43.91540000     -36.48290000     -71.86640000
C      -44.73630000     -37.57480000     -71.54740000
C      -45.16450000     -37.82800000     -70.22950000
H      -44.68940000     -37.07100000     -68.20730000
H      -42.52490000     -35.05310000     -71.09530000
H      -45.06480000     -38.37320000     -72.32440000
H      -45.70370000     -38.70080000     -69.76730000
C      -43.64320000     -36.27110000     -73.29380000
H      -44.02670000     -37.12700000     -73.86100000
H      -42.59030000     -36.06670000     -73.51990000
C      -43.19560000     -35.10310000     -68.36040000
H      -43.86970000     -35.08750000     -67.46750000
H      -42.28520000     -35.55510000     -67.91390000
S      -44.49000000     -34.75990000     -74.04590000
S      -42.70460000     -33.42920000     -68.72490000
C      -46.28200000     -34.89620000     -73.38930000
H      -47.11350000     -34.71570000     -74.16910000
H      -46.31480000     -35.95100000     -73.11470000
C      -43.99340000     -32.70860000     -69.96870000
H      -44.03490000     -33.16030000     -70.90170000
H      -43.68030000     -31.68110000     -70.10500000
C      -45.36970000     -32.66260000     -69.38200000
H      -45.97680000     -33.63320000     -69.34930000
H      -45.34750000     -32.28620000     -68.35790000
C      -46.50340000     -34.01670000     -72.14280000
H      -45.57630000     -33.94030000     -71.53850000
H      -47.40270000     -34.44460000     -71.64970000
C      -46.87590000     -32.59940000     -72.50750000
C      -47.35700000     -32.05990000     -73.69880000
C      -46.71560000     -31.62800000     -71.45860000
H      -47.68010000     -32.58320000     -74.57750000
C      -47.12210000     -30.36190000     -71.87910000
C      -46.15220000     -31.58100000     -70.09310000
C      -46.07210000     -30.26920000     -69.64040000
S      -47.72860000     -30.33990000     -73.50890000
S      -46.75790000     -29.05720000     -70.75570000
H      -45.78800000     -30.03170000     -68.66730000
