40
Properties=species:S:1:pos:R:3 #=T CELL(abcABC):=T 1.889726e+02=T 90.00000=T Traj:=T positionsangstrom=T Step:=T 0=T Bead:=T pbc="F F F"
C      -44.07650000     -33.69930000     -75.24250000
C      -45.06690000     -34.61970000     -74.72600000
C      -46.33700000     -34.14770000     -74.38690000
C      -46.63260000     -32.78600000     -74.48320000
C      -45.71340000     -31.92260000     -75.03160000
C      -44.47310000     -32.37280000     -75.44990000
H      -43.08850000     -33.91530000     -75.38150000
H      -47.09680000     -34.86830000     -73.91060000
H      -45.98360000     -30.85780000     -75.17290000
H      -43.80750000     -31.67100000     -75.84920000
C      -47.98550000     -32.25170000     -74.09240000
H      -48.83900000     -32.46070000     -74.65410000
H      -47.97430000     -31.17620000     -73.84680000
C      -44.73470000     -36.04920000     -74.52970000
H      -45.58960000     -36.68920000     -74.82290000
H      -43.80500000     -36.32380000     -75.09220000
S      -48.56930000     -33.03650000     -72.50000000
S      -44.56440000     -36.56730000     -72.73080000
C      -47.15170000     -32.49550000     -71.32570000
H      -46.20240000     -32.68180000     -71.80850000
H      -47.27800000     -31.42190000     -71.25660000
C      -43.93530000     -35.15640000     -71.67600000
H      -44.25650000     -34.32430000     -72.22810000
H      -42.87200000     -35.07800000     -71.60810000
C      -44.60890000     -35.27130000     -70.28420000
H      -45.68180000     -35.20300000     -70.49150000
H      -44.35600000     -36.28490000     -69.86180000
C      -47.31740000     -33.09050000     -69.91620000
H      -47.41360000     -34.14140000     -70.04140000
H      -48.32780000     -32.77780000     -69.66430000
C      -46.26560000     -32.61350000     -69.01400000
C      -46.46670000     -31.40100000     -68.37860000
C      -44.89990000     -33.09450000     -68.83610000
H      -47.37610000     -30.86940000     -68.30510000
C      -44.09190000     -32.19190000     -68.11610000
C      -44.13090000     -34.21640000     -69.31310000
C      -42.81610000     -34.12870000     -68.91550000
S      -45.07800000     -30.82830000     -67.53910000
S      -42.37490000     -32.70750000     -67.93150000
H      -41.99890000     -34.83030000     -69.20540000
