40
Properties=species:S:1:pos:R:3 #=T CELL(abcABC):=T 1.889726e+02=T 90.00000=T Traj:=T positionsangstrom=T Step:=T 0=T Bead:=T pbc="F F F"
C      -44.16000000     -33.61250000     -75.35300000
C      -44.95880000     -34.57460000     -74.72750000
C      -46.26900000     -34.23030000     -74.19700000
C      -46.79400000     -32.95910000     -74.38930000
C      -45.98280000     -31.99540000     -75.00240000
C      -44.63140000     -32.26720000     -75.40100000
H      -43.08480000     -33.73740000     -75.62410000
H      -46.84500000     -35.05910000     -73.83150000
H      -46.34920000     -30.97420000     -75.01970000
H      -43.93130000     -31.42930000     -75.67840000
C      -48.24010000     -32.69820000     -74.08260000
H      -48.73040000     -33.32150000     -74.83880000
H      -48.36100000     -31.70340000     -74.32390000
C      -44.40660000     -35.95290000     -74.48710000
H      -44.91320000     -36.77320000     -75.07390000
H      -43.31030000     -36.06830000     -74.77490000
S      -48.76580000     -33.00460000     -72.33200000
S      -44.56100000     -36.61320000     -72.80410000
C      -47.18280000     -32.97610000     -71.35610000
H      -46.56410000     -33.83690000     -71.73910000
H      -46.57700000     -32.11010000     -71.49340000
C      -44.01350000     -35.12760000     -71.73120000
H      -44.35690000     -34.20630000     -72.24310000
H      -42.96060000     -35.07970000     -71.67960000
C      -44.67790000     -35.21010000     -70.37290000
H      -45.76440000     -35.14270000     -70.38580000
H      -44.50710000     -36.24100000     -69.97600000
C      -47.31480000     -33.16380000     -69.83340000
H      -47.40250000     -34.25280000     -69.59630000
H      -48.30620000     -32.81610000     -69.60470000
C      -46.22140000     -32.47160000     -69.03690000
C      -46.36970000     -31.32270000     -68.27800000
C      -44.84380000     -32.99570000     -68.95160000
H      -47.14610000     -30.58590000     -68.43410000
C      -44.03370000     -32.14570000     -68.14870000
C      -44.06490000     -34.14100000     -69.36260000
C      -42.75180000     -34.04820000     -68.95830000
S      -44.89500000     -30.72640000     -67.54990000
S      -42.31160000     -32.57530000     -68.01920000
H      -41.99570000     -34.66050000     -69.33380000
