40
Properties=species:S:1:pos:R:3 #=T CELL(abcABC):=T 1.889726e+02=T 90.00000=T Traj:=T positionsangstrom=T Step:=T 0=T Bead:=T pbc="F F F"
C      -43.43240000     -33.29030000     -74.72000000
C      -44.40490000     -34.26380000     -74.72530000
C      -45.73970000     -33.88970000     -74.70980000
C      -46.15490000     -32.53170000     -74.78770000
C      -45.14720000     -31.53550000     -74.89990000
C      -43.80430000     -31.90280000     -74.90960000
H      -42.42070000     -33.74770000     -74.58570000
H      -46.48190000     -34.64230000     -74.54400000
H      -45.40480000     -30.55010000     -74.85510000
H      -43.01680000     -31.14740000     -74.88050000
C      -47.65870000     -32.23230000     -74.67910000
H      -48.17000000     -32.75280000     -75.45570000
H      -47.74460000     -31.14560000     -74.91960000
C      -44.03900000     -35.68550000     -74.44990000
H      -44.36530000     -36.33000000     -75.31540000
H      -43.00210000     -35.84770000     -74.27880000
S      -48.34990000     -32.70290000     -73.06650000
S      -44.73620000     -36.44170000     -72.87060000
C      -47.13430000     -32.10640000     -71.75360000
H      -46.11990000     -32.04910000     -72.28270000
H      -47.44280000     -31.08100000     -71.56310000
C      -44.42210000     -35.13720000     -71.57590000
H      -45.03980000     -34.28370000     -72.02490000
H      -43.38920000     -34.92980000     -71.60610000
C      -45.02990000     -35.57340000     -70.19090000
H      -46.03490000     -35.69630000     -70.32010000
H      -44.65080000     -36.55860000     -69.83700000
C      -47.21930000     -32.86530000     -70.47690000
H      -47.18470000     -33.94300000     -70.67860000
H      -48.30600000     -32.83840000     -70.10340000
C      -46.26630000     -32.51470000     -69.39370000
C      -46.41120000     -31.35470000     -68.71390000
C      -45.17910000     -33.29470000     -68.84910000
H      -47.12240000     -30.52190000     -68.88090000
C      -44.47550000     -32.61200000     -67.87650000
C      -44.62150000     -34.59810000     -69.08300000
C      -43.52880000     -34.85630000     -68.23370000
S      -45.19510000     -31.02150000     -67.50350000
S      -43.16700000     -33.50220000     -67.10410000
H      -42.89030000     -35.75530000     -68.34940000
