40
Properties=species:S:1:pos:R:3 #=T CELL(abcABC):=T 1.889726e+02=T 90.00000=T Traj:=T positionsangstrom=T Step:=T 0=T Bead:=T pbc="F F F"
C      -44.68510000     -32.56960000     -75.62040000
C      -44.42010000     -33.69680000     -74.79140000
C      -45.47140000     -34.47210000     -74.25630000
C      -46.79850000     -34.05870000     -74.45640000
C      -47.04320000     -32.86290000     -75.19290000
C      -45.99660000     -32.10080000     -75.71250000
H      -43.83960000     -32.13070000     -76.11040000
H      -45.14830000     -35.43380000     -73.75430000
H      -48.14010000     -32.46400000     -75.17550000
H      -46.19830000     -31.16930000     -76.23070000
C      -47.99460000     -34.86820000     -73.95920000
H      -47.68470000     -35.98750000     -73.93500000
H      -48.84760000     -34.62160000     -74.56200000
C      -42.98090000     -34.13300000     -74.65310000
H      -42.89780000     -35.25620000     -74.28200000
H      -42.45680000     -34.00790000     -75.57160000
S      -48.69910000     -34.20260000     -72.30900000
S      -42.13670000     -33.06440000     -73.29690000
C      -47.28800000     -33.42080000     -71.44400000
H      -46.78310000     -32.85280000     -72.19080000
H      -47.71800000     -32.80350000     -70.64780000
C      -43.03210000     -33.52650000     -71.77060000
H      -42.22480000     -33.80430000     -71.05170000
H      -43.69410000     -34.37570000     -71.92380000
C      -43.80270000     -32.38650000     -71.17880000
H      -43.53020000     -31.44140000     -71.53950000
H      -44.85380000     -32.42890000     -71.53190000
C      -46.40470000     -34.54420000     -70.80540000
H      -45.47090000     -34.68760000     -71.43270000
H      -46.92170000     -35.49780000     -70.93240000
C      -46.05130000     -34.17200000     -69.36750000
C      -46.74330000     -34.71050000     -68.34210000
C      -45.05350000     -33.15230000     -68.99460000
H      -47.53030000     -35.45070000     -68.48850000
C      -45.14640000     -32.97060000     -67.59350000
C      -43.99490000     -32.37620000     -69.65110000
C      -43.27570000     -31.59360000     -68.75500000
S      -46.22260000     -34.06460000     -66.74950000
S      -43.89590000     -31.77420000     -67.12330000
H      -42.51790000     -30.96570000     -69.04580000
