40
Properties=species:S:1:pos:R:3 #=T CELL(abcABC):=T 1.889726e+02=T 90.00000=T Traj:=T positionsangstrom=T Step:=T 0=T Bead:=T pbc="F F F"
C      -44.19490000     -33.43090000     -74.93480000
C      -44.95820000     -34.56830000     -74.65700000
C      -46.34320000     -34.42560000     -74.51760000
C      -46.92240000     -33.14810000     -74.53420000
C      -46.10770000     -32.03490000     -74.76290000
C      -44.73770000     -32.18180000     -75.07460000
H      -43.13180000     -33.62290000     -75.16220000
H      -46.88120000     -35.38870000     -74.45470000
H      -46.62810000     -31.06600000     -74.84450000
H      -44.04640000     -31.25700000     -75.14720000
C      -48.38890000     -33.01700000     -74.09580000
H      -49.00090000     -33.83260000     -74.61860000
H      -48.87870000     -32.01840000     -74.18750000
C      -44.44360000     -35.98390000     -74.57610000
H      -44.96950000     -36.65170000     -75.21790000
H      -43.45590000     -36.06320000     -74.91670000
S      -48.56720000     -33.38590000     -72.36560000
S      -44.57790000     -36.56990000     -72.79920000
C      -47.22810000     -32.56050000     -71.48730000
H      -46.20530000     -32.82830000     -71.91120000
H      -47.34810000     -31.49490000     -71.67950000
C      -44.15240000     -35.06200000     -71.87680000
H      -44.57170000     -34.17620000     -72.38580000
H      -43.06440000     -34.87790000     -71.91390000
C      -44.62430000     -35.11130000     -70.34320000
H      -45.71640000     -35.00280000     -70.46140000
H      -44.46700000     -36.13230000     -70.00920000
C      -47.19810000     -33.00650000     -69.97140000
H      -47.04910000     -34.04580000     -70.10050000
H      -48.20820000     -32.88830000     -69.66000000
C      -46.09690000     -32.37330000     -69.15350000
C      -46.29500000     -31.31360000     -68.33660000
C      -44.75490000     -32.88240000     -68.99360000
H      -47.30870000     -31.00900000     -68.05180000
C      -43.99110000     -32.08700000     -68.12160000
C      -44.01930000     -34.09240000     -69.40700000
C      -42.68820000     -33.90820000     -69.05080000
S      -44.88120000     -30.72930000     -67.42670000
S      -42.36480000     -32.52850000     -68.02260000
H      -41.98140000     -34.68540000     -69.14760000
