40
Properties=species:S:1:pos:R:3 #=T CELL(abcABC):=T 1.889726e+02=T 90.00000=T Traj:=T positionsangstrom=T Step:=T 0=T Bead:=T pbc="F F F"
C      -45.01720000     -37.36640000     -70.90640000
C      -45.76710000     -36.25160000     -71.30140000
C      -45.41390000     -35.64780000     -72.56110000
C      -44.28870000     -36.11080000     -73.22480000
C      -43.48450000     -37.09880000     -72.72870000
C      -43.84440000     -37.74770000     -71.55430000
H      -45.26530000     -37.81460000     -70.01430000
H      -46.11900000     -34.96790000     -73.06110000
H      -42.57830000     -37.46420000     -73.27020000
H      -43.36210000     -38.66100000     -71.26710000
C      -43.78300000     -35.39590000     -74.44690000
H      -44.66300000     -35.11560000     -75.04150000
H      -43.22850000     -36.16240000     -74.97860000
C      -46.84400000     -35.67030000     -70.51590000
H      -47.12170000     -34.60670000     -70.77990000
H      -47.75570000     -36.15640000     -70.37690000
S      -42.78890000     -33.88220000     -74.23170000
S      -46.41940000     -35.42240000     -68.74050000
C      -44.09620000     -32.69420000     -73.79570000
H      -44.15220000     -31.99620000     -74.60100000
H      -45.10720000     -33.22470000     -73.72360000
C      -44.74000000     -34.60550000     -68.77590000
H      -43.93600000     -35.34930000     -68.93540000
H      -44.60900000     -34.18240000     -67.76090000
C      -44.54910000     -33.44360000     -69.84160000
H      -43.50780000     -32.98300000     -69.69050000
H      -44.62370000     -33.90910000     -70.78650000
C      -43.80860000     -31.75930000     -72.57240000
H      -43.09690000     -31.01100000     -72.76890000
H      -43.35220000     -32.32420000     -71.71030000
C      -45.08210000     -31.03770000     -72.10470000
C      -45.64350000     -29.93530000     -72.69660000
C      -45.72700000     -31.34960000     -70.82150000
H      -45.24150000     -29.47100000     -73.58300000
C      -46.73260000     -30.41320000     -70.53310000
C      -45.48930000     -32.30250000     -69.80020000
C      -46.23750000     -32.10170000     -68.69930000
S      -46.97800000     -29.21650000     -71.81970000
S      -47.26570000     -30.69970000     -68.88040000
H      -46.42070000     -32.55700000     -67.81000000
