40
Properties=species:S:1:pos:R:3 #=T CELL(abcABC):=T 1.889726e+02=T 90.00000=T Traj:=T positionsangstrom=T Step:=T 0=T Bead:=T pbc="F F F"
C      -44.24840000     -33.48630000     -75.03000000
C      -45.05590000     -34.57860000     -74.66850000
C      -46.40590000     -34.39900000     -74.32820000
C      -46.96420000     -33.14420000     -74.32300000
C      -46.09420000     -32.02370000     -74.54210000
C      -44.76070000     -32.19090000     -74.87150000
H      -43.20080000     -33.80290000     -75.30070000
H      -46.96930000     -35.24820000     -74.13000000
H      -46.54090000     -31.03200000     -74.42780000
H      -44.18090000     -31.28900000     -75.01340000
C      -48.39620000     -33.03190000     -73.98900000
H      -48.99050000     -33.66260000     -74.64910000
H      -48.73800000     -32.07100000     -74.38140000
C      -44.42210000     -35.95760000     -74.51700000
H      -45.02390000     -36.63070000     -75.13040000
H      -43.41740000     -35.94740000     -74.88540000
S      -48.60890000     -33.56300000     -72.22840000
S      -44.54960000     -36.56480000     -72.80850000
C      -47.17530000     -32.73230000     -71.37750000
H      -46.21990000     -33.06480000     -71.72180000
H      -47.16200000     -31.61960000     -71.45740000
C      -43.89400000     -35.16860000     -71.85140000
H      -44.27030000     -34.25540000     -72.28780000
H      -42.80480000     -35.17540000     -71.79490000
C      -44.47540000     -35.08470000     -70.37600000
H      -45.51510000     -35.06570000     -70.58800000
H      -44.28820000     -36.05690000     -69.82510000
C      -47.20970000     -33.14250000     -69.88120000
H      -47.11330000     -34.24380000     -69.80150000
H      -48.18590000     -32.79190000     -69.56000000
C      -46.10140000     -32.40490000     -69.20450000
C      -46.35090000     -31.25480000     -68.53550000
C      -44.69990000     -32.78400000     -69.11620000
H      -47.22730000     -30.67730000     -68.69810000
C      -43.97550000     -31.95390000     -68.24560000
C      -44.00400000     -33.96590000     -69.48620000
C      -42.75500000     -33.98500000     -68.90330000
S      -45.00010000     -30.56210000     -67.73850000
S      -42.32800000     -32.47850000     -68.11170000
H      -41.89150000     -34.64290000     -69.24910000
