40
Properties=species:S:1:pos:R:3 #=T CELL(abcABC):=T 1.889726e+02=T 90.00000=T Traj:=T positionsangstrom=T Step:=T 0=T Bead:=T pbc="F F F"
C      -44.34930000     -32.68540000     -75.18570000
C      -44.20270000     -33.94140000     -74.51400000
C      -45.37820000     -34.67200000     -74.23000000
C      -46.66780000     -34.12130000     -74.54040000
C      -46.77820000     -32.92740000     -75.25850000
C      -45.58940000     -32.22220000     -75.58350000
H      -43.45930000     -32.05480000     -75.34200000
H      -45.32470000     -35.56580000     -73.59270000
H      -47.67270000     -32.34540000     -75.32400000
H      -45.61260000     -31.23080000     -76.06360000
C      -47.85210000     -34.81470000     -74.00080000
H      -47.60450000     -35.67870000     -73.46090000
H      -48.48780000     -35.09600000     -74.91630000
C      -42.86670000     -34.49440000     -74.24070000
H      -42.92420000     -35.52750000     -73.95940000
H      -42.32740000     -34.43350000     -75.29020000
S      -48.71660000     -33.83740000     -72.71490000
S      -41.82520000     -33.50230000     -73.09620000
C      -47.54970000     -33.41060000     -71.28940000
H      -46.88260000     -32.61130000     -71.56630000
H      -48.17650000     -33.16110000     -70.49370000
C      -42.66150000     -33.50600000     -71.44940000
H      -41.85600000     -33.21810000     -70.80130000
H      -42.82340000     -34.55520000     -71.14130000
C      -43.97330000     -32.59620000     -71.30090000
H      -43.73460000     -31.59830000     -71.72950000
H      -44.87440000     -33.01760000     -71.81270000
C      -46.70620000     -34.53370000     -70.73060000
H      -45.78730000     -34.68890000     -71.38010000
H      -47.29520000     -35.49900000     -70.63330000
C      -46.29920000     -34.06120000     -69.34920000
C      -46.92990000     -34.55830000     -68.26020000
C      -45.27970000     -33.15890000     -69.04600000
H      -47.64680000     -35.37810000     -68.22480000
C      -45.16100000     -32.85830000     -67.68800000
C      -44.35630000     -32.38040000     -69.83300000
C      -43.56080000     -31.52640000     -69.07710000
S      -46.36620000     -33.81490000     -66.74000000
S      -44.09030000     -31.59810000     -67.39230000
H      -42.82310000     -30.77690000     -69.41980000
