40
Properties=species:S:1:pos:R:3 #=T CELL(abcABC):=T 1.889726e+02=T 90.00000=T Traj:=T positionsangstrom=T Step:=T 0=T Bead:=T pbc="F F F"
C      -44.78130000     -36.84470000     -72.99010000
C      -45.05950000     -35.43600000     -72.92650000
C      -44.38070000     -34.62990000     -72.00520000
C      -43.43590000     -35.19000000     -71.11890000
C      -43.23860000     -36.56350000     -71.16360000
C      -43.86290000     -37.39560000     -72.05890000
H      -45.21000000     -37.63010000     -73.59110000
H      -44.55810000     -33.51750000     -71.97970000
H      -42.53260000     -36.87360000     -70.37820000
H      -43.49750000     -38.47080000     -72.09320000
C      -42.73920000     -34.34140000     -70.08150000
H      -42.75920000     -33.26660000     -70.40260000
H      -41.65590000     -34.61010000     -69.98990000
C      -46.01280000     -34.68790000     -73.85010000
H      -45.69830000     -33.67930000     -73.99570000
H      -46.04240000     -35.07630000     -74.90380000
S      -43.41560000     -34.27190000     -68.31090000
S      -47.81080000     -34.98010000     -73.35940000
C      -45.26360000     -34.23910000     -68.40290000
H      -45.57400000     -34.95160000     -69.13060000
H      -45.57250000     -34.73190000     -67.46210000
C      -47.76690000     -34.67350000     -71.58240000
H      -46.81660000     -34.98070000     -71.12150000
H      -48.52220000     -35.32650000     -71.13570000
C      -48.05360000     -33.18710000     -71.08240000
H      -49.03390000     -33.05670000     -71.57590000
H      -48.20290000     -33.15310000     -69.97360000
C      -45.80970000     -32.83440000     -68.50760000
H      -45.59050000     -32.33590000     -67.55110000
H      -46.89090000     -33.02140000     -68.63120000
C      -45.33190000     -31.93170000     -69.65560000
C      -44.20900000     -31.13620000     -69.50030000
C      -45.93160000     -31.70540000     -70.97750000
H      -43.44640000     -31.11940000     -68.73530000
C      -45.24760000     -30.73150000     -71.74370000
C      -47.05170000     -32.21700000     -71.67160000
C      -47.21840000     -31.66500000     -72.90280000
S      -43.85820000     -30.16490000     -70.92070000
S      -46.06320000     -30.38380000     -73.26480000
H      -48.09160000     -31.84090000     -73.56020000
