40
Properties=species:S:1:pos:R:3 #=T CELL(abcABC):=T 1.889726e+02=T 90.00000=T Traj:=T positionsangstrom=T Step:=T 0=T Bead:=T pbc="F F F"
C      -44.87910000     -36.75220000     -72.33570000
C      -44.91000000     -35.41000000     -72.83310000
C      -44.12670000     -34.48680000     -72.16690000
C      -43.22580000     -34.84620000     -71.14140000
C      -42.96770000     -36.19700000     -70.90430000
C      -43.82420000     -37.15030000     -71.47080000
H      -45.62870000     -37.43710000     -72.74370000
H      -44.23520000     -33.42800000     -72.28420000
H      -42.25890000     -36.57720000     -70.28320000
H      -43.65950000     -38.14920000     -71.36140000
C      -42.51620000     -33.77920000     -70.37540000
H      -42.65600000     -32.79110000     -70.79160000
H      -41.48540000     -33.98290000     -70.31470000
C      -45.82520000     -35.05580000     -73.96180000
H      -45.67190000     -34.05490000     -74.36680000
H      -45.80970000     -35.82710000     -74.72190000
S      -43.01150000     -33.77190000     -68.53450000
S      -47.64290000     -34.84700000     -73.45650000
C      -44.82870000     -34.16140000     -68.56430000
H      -45.13950000     -34.65580000     -69.47580000
H      -45.06860000     -34.75110000     -67.71270000
C      -47.72930000     -34.95380000     -71.60340000
H      -46.70260000     -35.20050000     -71.17430000
H      -48.44780000     -35.80460000     -71.39460000
C      -48.17770000     -33.67650000     -70.87660000
H      -49.25350000     -33.48560000     -70.92150000
H      -47.94400000     -33.89810000     -69.86770000
C      -45.76000000     -32.87910000     -68.52170000
H      -45.64230000     -32.60950000     -67.44710000
H      -46.75670000     -33.19100000     -68.64010000
C      -45.46670000     -31.92560000     -69.65800000
C      -44.41890000     -31.02930000     -69.60350000
C      -46.04560000     -31.98220000     -70.96710000
H      -43.83790000     -30.78560000     -68.73730000
C      -45.46850000     -31.07610000     -71.87090000
C      -47.32910000     -32.53100000     -71.43270000
C      -47.69230000     -31.98280000     -72.63680000
S      -44.08780000     -30.16730000     -71.15010000
S      -46.50930000     -30.80200000     -73.22560000
H      -48.62180000     -32.22690000     -73.17490000
