40
Properties=species:S:1:pos:R:3 #=T CELL(abcABC):=T 1.889726e+02=T 90.00000=T Traj:=T positionsangstrom=T Step:=T 0=T Bead:=T pbc="F F F"
C      -44.68850000     -36.70920000     -72.53230000
C      -44.87240000     -35.32930000     -72.79860000
C      -44.18140000     -34.43450000     -72.00620000
C      -43.18670000     -34.90420000     -71.09690000
C      -43.00220000     -36.20770000     -70.85240000
C      -43.80650000     -37.14480000     -71.49650000
H      -45.16660000     -37.55160000     -73.05930000
H      -44.19230000     -33.32890000     -72.27300000
H      -42.33300000     -36.45210000     -69.99310000
H      -43.62530000     -38.17870000     -71.27910000
C      -42.37610000     -33.87910000     -70.28780000
H      -42.29040000     -32.88700000     -70.78390000
H      -41.28360000     -34.16470000     -70.16850000
C      -45.83680000     -34.74770000     -73.82300000
H      -45.51440000     -33.65880000     -73.88930000
H      -45.73030000     -35.23440000     -74.77680000
S      -43.04710000     -33.85360000     -68.53960000
S      -47.68910000     -34.94590000     -73.39900000
C      -44.90120000     -34.21900000     -68.55800000
H      -44.98450000     -34.80770000     -69.50800000
H      -45.05000000     -34.86060000     -67.64870000
C      -47.83090000     -34.79050000     -71.53260000
H      -46.81230000     -34.93750000     -71.14700000
H      -48.48830000     -35.51940000     -71.12790000
C      -48.38860000     -33.48630000     -71.00630000
H      -49.47740000     -33.39230000     -71.36050000
H      -48.34630000     -33.51650000     -69.92290000
C      -45.75800000     -32.91950000     -68.40830000
H      -45.52720000     -32.25450000     -67.56690000
H      -46.77450000     -33.17090000     -68.41510000
C      -45.55440000     -31.97910000     -69.61630000
C      -44.38570000     -31.24890000     -69.70210000
C      -46.34640000     -31.78740000     -70.83200000
H      -43.66960000     -31.18660000     -68.85620000
C      -45.64190000     -30.95230000     -71.77010000
C      -47.52170000     -32.35410000     -71.52250000
C      -47.60640000     -31.86610000     -72.82760000
S      -44.02580000     -30.36120000     -71.20370000
S      -46.26670000     -30.82370000     -73.32140000
H      -48.36790000     -32.06480000     -73.59050000
