40
Properties=species:S:1:pos:R:3 #=T CELL(abcABC):=T 1.889726e+02=T 90.00000=T Traj:=T positionsangstrom=T Step:=T 0=T Bead:=T pbc="F F F"
C      -45.76610000     -31.93200000     -75.07380000
C      -45.21040000     -33.10550000     -74.63490000
C      -46.01690000     -34.05950000     -73.95270000
C      -47.42050000     -33.85770000     -73.85450000
C      -47.97600000     -32.72010000     -74.50170000
C      -47.19140000     -31.74120000     -75.06440000
H      -45.12880000     -31.22140000     -75.53670000
H      -45.59440000     -34.92060000     -73.45580000
H      -49.03980000     -32.70760000     -74.62830000
H      -47.63380000     -30.94910000     -75.63300000
C      -48.41500000     -34.89700000     -73.38510000
H      -47.86310000     -35.83780000     -73.18230000
H      -49.22170000     -35.03350000     -74.11910000
C      -43.74960000     -33.32890000     -74.81570000
H      -43.41150000     -34.29810000     -74.39690000
H      -43.36520000     -33.30930000     -75.88860000
S      -49.09810000     -34.58970000     -71.68220000
S      -42.68970000     -31.92170000     -74.12430000
C      -47.68550000     -33.79900000     -70.70980000
H      -47.42960000     -32.86460000     -71.29930000
H      -48.12860000     -33.57920000     -69.73160000
C      -42.58150000     -32.58830000     -72.35340000
H      -41.87670000     -31.86920000     -71.81940000
H      -42.13460000     -33.56010000     -72.35130000
C      -43.93850000     -32.67130000     -71.66900000
H      -44.54180000     -31.70260000     -71.80400000
H      -44.58340000     -33.38580000     -72.10540000
C      -46.50560000     -34.80800000     -70.50290000
H      -45.92570000     -34.74900000     -71.39830000
H      -46.97750000     -35.76050000     -70.43080000
C      -45.70820000     -34.45580000     -69.30800000
C      -46.02530000     -35.08190000     -68.06080000
C      -44.57880000     -33.59110000     -69.21630000
H      -46.92110000     -35.62220000     -67.72200000
C      -44.13950000     -33.51120000     -67.88630000
C      -43.76950000     -32.82050000     -70.09560000
C      -42.70640000     -32.23770000     -69.47800000
S      -45.07720000     -34.38620000     -66.79000000
S      -42.72070000     -32.43960000     -67.71730000
H      -42.07050000     -31.51780000     -69.95760000
