40
Properties=species:S:1:pos:R:3 #=T CELL(abcABC):=T 1.889726e+02=T 90.00000=T Traj:=T positionsangstrom=T Step:=T 0=T Bead:=T pbc="F F F"
C      -44.75490000     -36.64110000     -72.87750000
C      -45.01560000     -35.26140000     -72.80470000
C      -44.27730000     -34.45640000     -71.86410000
C      -43.32170000     -35.05700000     -71.00530000
C      -43.10150000     -36.40450000     -71.08560000
C      -43.76310000     -37.21020000     -72.06890000
H      -45.35400000     -37.32260000     -73.43440000
H      -44.31660000     -33.32760000     -71.70860000
H      -42.52540000     -36.83780000     -70.27630000
H      -43.58470000     -38.29360000     -72.14540000
C      -42.54970000     -34.22240000     -70.10280000
H      -42.39470000     -33.19680000     -70.45730000
H      -41.55490000     -34.55840000     -69.77720000
C      -46.09830000     -34.71000000     -73.62520000
H      -46.07080000     -33.60940000     -73.62100000
H      -46.09390000     -35.15300000     -74.62220000
S      -43.35950000     -34.20530000     -68.35660000
S      -47.69130000     -35.34720000     -73.02670000
C      -45.21090000     -34.19200000     -68.48930000
H      -45.53850000     -34.56230000     -69.44870000
H      -45.62570000     -34.79040000     -67.71010000
C      -47.73390000     -34.68880000     -71.32140000
H      -46.77150000     -34.84330000     -70.84400000
H      -48.45500000     -35.24720000     -70.79540000
C      -48.25910000     -33.24560000     -71.26240000
H      -49.28370000     -33.12940000     -71.78890000
H      -48.46000000     -32.97840000     -70.25670000
C      -45.89660000     -32.83600000     -68.54930000
H      -45.64320000     -32.13920000     -67.65630000
H      -46.96810000     -32.98010000     -68.63540000
C      -45.38640000     -32.03020000     -69.79850000
C      -44.31430000     -31.16430000     -69.66930000
C      -45.95770000     -31.84680000     -71.13550000
H      -43.64860000     -31.16290000     -68.81070000
C      -45.27320000     -30.89500000     -71.93710000
C      -47.20710000     -32.23600000     -71.77710000
C      -47.35490000     -31.59230000     -72.98300000
S      -43.92190000     -30.16480000     -71.08400000
S      -46.12200000     -30.40900000     -73.35320000
H      -48.12360000     -31.72980000     -73.72930000
