40
Properties=species:S:1:pos:R:3 #=T CELL(abcABC):=T 1.889726e+02=T 90.00000=T Traj:=T positionsangstrom=T Step:=T 0=T Bead:=T pbc="F F F"
C      -46.82280000     -31.00680000     -74.77450000
C      -45.99310000     -32.16830000     -74.75830000
C      -46.43500000     -33.31340000     -74.17680000
C      -47.74150000     -33.36870000     -73.62430000
C      -48.50320000     -32.20990000     -73.55740000
C      -48.11420000     -31.04990000     -74.26310000
H      -46.45900000     -30.16250000     -75.26790000
H      -45.94770000     -34.20930000     -74.34310000
H      -49.50000000     -32.24770000     -73.03800000
H      -48.71360000     -30.23050000     -74.49790000
C      -48.14340000     -34.68820000     -73.02210000
H      -47.33150000     -35.40300000     -73.12290000
H      -48.97410000     -35.15450000     -73.64340000
C      -44.61820000     -32.21940000     -75.37620000
H      -44.28640000     -33.25480000     -75.66720000
H      -44.42620000     -31.63740000     -76.28700000
S      -48.83120000     -34.53690000     -71.31160000
S      -43.38490000     -31.51560000     -74.10650000
C      -47.29650000     -34.21980000     -70.28030000
H      -46.94050000     -33.18320000     -70.35790000
H      -47.69250000     -34.35160000     -69.29160000
C      -43.37910000     -32.85500000     -72.81240000
H      -42.35880000     -32.91400000     -72.41570000
H      -43.66070000     -33.80380000     -73.27210000
C      -44.40080000     -32.61610000     -71.58580000
H      -44.70520000     -31.55210000     -71.60670000
H      -45.26320000     -33.22420000     -71.74710000
C      -46.28440000     -35.33190000     -70.41820000
H      -45.73640000     -35.35160000     -71.33370000
H      -46.79560000     -36.26060000     -70.29990000
C      -45.16300000     -35.12040000     -69.38570000
C      -45.19110000     -35.84090000     -68.24290000
C      -44.14680000     -34.06570000     -69.36390000
H      -45.87180000     -36.54410000     -67.89770000
C      -43.38980000     -34.08620000     -68.17250000
C      -43.79070000     -32.97960000     -70.25000000
C      -42.83680000     -32.18790000     -69.72150000
S      -43.89070000     -35.35180000     -67.09740000
S      -42.23960000     -32.70280000     -68.12380000
H      -42.46120000     -31.29240000     -70.27640000
