40
Properties=species:S:1:pos:R:3 #=T CELL(abcABC):=T 1.889726e+02=T 90.00000=T Traj:=T positionsangstrom=T Step:=T 0=T Bead:=T pbc="F F F"
C      -46.98900000     -30.93080000     -74.47530000
C      -46.10910000     -32.09260000     -74.65400000
C      -46.60950000     -33.28780000     -74.11460000
C      -47.89710000     -33.36000000     -73.49030000
C      -48.67860000     -32.22750000     -73.33130000
C      -48.18880000     -30.97230000     -73.79880000
H      -46.68350000     -29.92960000     -74.85700000
H      -46.01650000     -34.13400000     -74.27100000
H      -49.57940000     -32.28060000     -72.65830000
H      -48.86040000     -30.02850000     -73.59280000
C      -48.41530000     -34.82660000     -73.05120000
H      -47.56610000     -35.51680000     -73.19510000
H      -49.27650000     -35.09300000     -73.77800000
C      -44.69170000     -31.98590000     -75.22530000
H      -44.15500000     -32.88070000     -75.53270000
H      -44.78260000     -31.30590000     -76.06450000
S      -49.03240000     -34.94110000     -71.22620000
S      -43.58190000     -31.01920000     -74.00010000
C      -47.44260000     -34.20440000     -70.56410000
H      -47.28390000     -33.24710000     -71.12040000
H      -47.60730000     -33.90220000     -69.47820000
C      -43.17480000     -32.07670000     -72.53140000
H      -42.25300000     -31.65610000     -72.09440000
H      -43.03690000     -33.06560000     -72.87930000
C      -44.17160000     -32.08000000     -71.43280000
H      -44.33650000     -31.04170000     -71.15740000
H      -45.11300000     -32.50650000     -71.81710000
C      -46.18250000     -35.14530000     -70.74510000
H      -45.75160000     -34.88110000     -71.67080000
H      -46.61500000     -36.20520000     -70.79490000
C      -45.11820000     -35.09400000     -69.64670000
C      -45.05210000     -36.03520000     -68.63230000
C      -44.09340000     -34.03460000     -69.50800000
H      -45.65450000     -36.97700000     -68.69150000
C      -43.28070000     -34.28960000     -68.40090000
C      -43.61680000     -32.81680000     -70.18670000
C      -42.53100000     -32.20610000     -69.50230000
S      -43.77950000     -35.79040000     -67.51860000
S      -41.97090000     -33.13240000     -68.10920000
H      -42.06560000     -31.24600000     -69.77370000
