40
Properties=species:S:1:pos:R:3 #=T CELL(abcABC):=T 1.889726e+02=T 90.00000=T Traj:=T positionsangstrom=T Step:=T 0=T Bead:=T pbc="F F F"
C      -44.68770000     -29.23870000     -71.62160000
C      -45.42860000     -30.17270000     -72.44090000
C      -46.66580000     -30.64070000     -71.84630000
C      -47.12620000     -30.30180000     -70.55450000
C      -46.31970000     -29.34230000     -69.83730000
C      -45.05750000     -28.90050000     -70.34640000
H      -43.66660000     -28.90560000     -71.91100000
H      -47.27230000     -31.35620000     -72.45010000
H      -46.60390000     -28.87010000     -68.87420000
H      -44.45090000     -28.17810000     -69.83370000
C      -48.28530000     -30.96230000     -69.85470000
H      -49.11050000     -31.33940000     -70.50690000
H      -48.77130000     -30.20130000     -69.29490000
C      -44.91280000     -30.62670000     -73.75970000
H      -45.67810000     -31.03770000     -74.38020000
H      -44.41200000     -29.85060000     -74.31540000
S      -47.81960000     -32.22850000     -68.66310000
S      -43.72680000     -32.07250000     -73.65930000
C      -47.26790000     -33.46460000     -69.95780000
H      -48.10900000     -34.03270000     -70.22050000
H      -46.90300000     -32.87770000     -70.81930000
C      -43.03220000     -32.12850000     -71.91720000
H      -43.36610000     -31.21810000     -71.40170000
H      -41.93350000     -32.24160000     -71.92210000
C      -43.61400000     -33.26550000     -71.04740000
H      -42.88100000     -33.40240000     -70.20020000
H      -44.58210000     -32.91570000     -70.73030000
C      -46.26900000     -34.45590000     -69.31340000
H      -46.86720000     -34.93750000     -68.48860000
H      -45.37700000     -33.94270000     -68.99200000
C      -45.87970000     -35.58780000     -70.22490000
C      -46.49320000     -36.79140000     -70.21530000
C      -44.78290000     -35.54260000     -71.19240000
H      -47.21810000     -37.14370000     -69.52760000
C      -44.61230000     -36.76730000     -71.89110000
C      -43.71490000     -34.64230000     -71.68100000
C      -42.92700000     -35.12150000     -72.64470000
S      -45.73110000     -37.97790000     -71.34060000
S      -43.25740000     -36.82970000     -72.87560000
H      -41.94810000     -34.75480000     -72.96240000
