40
Properties=species:S:1:pos:R:3 #=T CELL(abcABC):=T 1.889726e+02=T 90.00000=T Traj:=T positionsangstrom=T Step:=T 0=T Bead:=T pbc="F F F"
C      -43.70260000     -36.17500000     -74.30430000
C      -44.95790000     -36.09520000     -73.65410000
C      -45.03330000     -36.07670000     -72.22750000
C      -43.82030000     -36.10870000     -71.48650000
C      -42.62640000     -36.15900000     -72.11340000
C      -42.53000000     -36.20990000     -73.51240000
H      -43.69440000     -35.95610000     -75.37660000
H      -45.99250000     -35.93610000     -71.71510000
H      -41.74990000     -35.98600000     -71.45740000
H      -41.59220000     -36.28770000     -74.06290000
C      -43.85240000     -36.02510000     -69.97150000
H      -42.97610000     -36.41310000     -69.48310000
H      -44.78160000     -36.49870000     -69.54960000
C      -46.20980000     -35.74660000     -74.39700000
H      -45.99250000     -35.66080000     -75.39730000
H      -46.99710000     -36.54500000     -74.37900000
S      -44.01100000     -34.25210000     -69.48180000
S      -47.21160000     -34.26660000     -73.78860000
C      -42.69950000     -33.30050000     -70.50550000
H      -41.71070000     -33.58640000     -70.11010000
H      -42.84740000     -33.67140000     -71.53260000
C      -46.02950000     -32.86900000     -74.14990000
H      -46.46710000     -32.05200000     -74.76810000
H      -45.31920000     -33.21550000     -74.80080000
C      -45.33240000     -32.30530000     -72.91730000
H      -44.58430000     -33.06100000     -72.56030000
H      -44.62890000     -31.50450000     -73.26210000
C      -43.02020000     -31.86340000     -70.26510000
H      -42.78780000     -31.23180000     -71.18400000
H      -42.45660000     -31.32250000     -69.47140000
C      -44.44660000     -31.57500000     -69.83630000
C      -44.52660000     -31.13360000     -68.53060000
C      -45.69200000     -31.48360000     -70.49890000
H      -43.75490000     -30.93740000     -67.79190000
C      -46.73010000     -31.09760000     -69.64370000
C      -46.21050000     -31.94880000     -71.78100000
C      -47.56400000     -31.89820000     -71.78490000
S      -46.20990000     -30.74190000     -68.03530000
S      -48.34260000     -31.22290000     -70.30970000
H      -48.20770000     -32.00920000     -72.69330000
