40
Properties=species:S:1:pos:R:3 #=T CELL(abcABC):=T 1.889726e+02=T 90.00000=T Traj:=T positionsangstrom=T Step:=T 0=T Bead:=T pbc="F F F"
C      -44.45270000     -36.90760000     -72.91250000
C      -44.90950000     -35.55940000     -72.95710000
C      -44.18980000     -34.53100000     -72.44240000
C      -43.12470000     -34.86150000     -71.66240000
C      -42.66260000     -36.20520000     -71.48980000
C      -43.31530000     -37.16250000     -72.19290000
H      -45.09680000     -37.66290000     -73.36920000
H      -44.61100000     -33.54380000     -72.51040000
H      -41.78000000     -36.41640000     -70.90660000
H      -42.98930000     -38.17360000     -72.13630000
C      -42.38710000     -33.69040000     -70.89330000
H      -42.74070000     -32.69600000     -71.26120000
H      -41.29300000     -33.82660000     -71.22870000
C      -46.19860000     -35.26450000     -73.63070000
H      -46.19240000     -34.19190000     -73.91080000
H      -46.48700000     -35.82620000     -74.49750000
S      -42.46530000     -33.91980000     -69.14850000
S      -47.70990000     -35.57570000     -72.56110000
C      -44.32620000     -33.98730000     -69.00950000
H      -44.68920000     -34.45150000     -69.90650000
H      -44.58980000     -34.63910000     -68.15560000
C      -47.30100000     -35.25770000     -70.75260000
H      -46.19300000     -35.46290000     -70.67810000
H      -47.93530000     -35.89790000     -70.13190000
C      -47.81500000     -33.88330000     -70.23650000
H      -48.88180000     -33.94470000     -70.24510000
H      -47.47420000     -33.73830000     -69.17640000
C      -44.93510000     -32.59470000     -68.63230000
H      -44.28510000     -32.06750000     -67.96360000
H      -45.89340000     -32.71770000     -68.13850000
C      -45.16250000     -31.65710000     -69.73270000
C      -44.48030000     -30.50580000     -69.85230000
C      -46.18920000     -31.77990000     -70.77630000
H      -43.70790000     -30.20880000     -69.18060000
C      -46.08540000     -30.75250000     -71.67040000
C      -47.32330000     -32.66460000     -71.07350000
C      -48.01210000     -32.17330000     -72.14700000
S      -44.78900000     -29.51630000     -71.30130000
S      -47.31870000     -30.76300000     -72.90800000
H      -48.82600000     -32.66420000     -72.68020000
