40
Properties=species:S:1:pos:R:3 #=T CELL(abcABC):=T 1.889726e+02=T 90.00000=T Traj:=T positionsangstrom=T Step:=T 0=T Bead:=T pbc="F F F"
C      -44.05270000     -36.33980000     -74.55490000
C      -45.02390000     -35.84990000     -73.64250000
C      -44.69410000     -35.77860000     -72.28870000
C      -43.47770000     -36.24140000     -71.77620000
C      -42.55610000     -36.83140000     -72.65300000
C      -42.84950000     -36.87340000     -74.05840000
H      -44.27700000     -36.40910000     -75.62810000
H      -45.45190000     -35.39000000     -71.62260000
H      -41.60590000     -37.13790000     -72.15990000
H      -42.05750000     -37.25610000     -74.72550000
C      -43.20000000     -36.35680000     -70.28100000
H      -42.11900000     -36.56370000     -70.14170000
H      -43.70570000     -37.24480000     -69.86240000
C      -46.33540000     -35.37980000     -74.14080000
H      -46.20680000     -35.15120000     -75.20870000
H      -47.12220000     -36.08740000     -74.08640000
S      -43.77070000     -34.79520000     -69.27060000
S      -46.92530000     -33.79230000     -73.38100000
C      -42.93900000     -33.50010000     -70.30410000
H      -41.88590000     -33.59440000     -70.52960000
H      -43.24980000     -33.60540000     -71.30120000
C      -45.65910000     -32.59050000     -74.04230000
H      -46.27480000     -31.84750000     -74.52240000
H      -44.94440000     -32.96990000     -74.71100000
C      -45.00010000     -31.91480000     -72.83820000
H      -44.41690000     -32.74410000     -72.32950000
H      -44.30880000     -31.09670000     -73.04000000
C      -43.32650000     -32.09340000     -69.85990000
H      -43.09370000     -31.46660000     -70.71370000
H      -42.68080000     -31.85750000     -68.95980000
C      -44.72930000     -31.79860000     -69.48450000
C      -45.08720000     -31.69300000     -68.14090000
C      -45.85590000     -31.55480000     -70.36630000
H      -44.56030000     -31.98830000     -67.29540000
C      -47.01100000     -31.11230000     -69.67510000
C      -45.99210000     -31.45410000     -71.79570000
C      -47.29530000     -31.03610000     -72.14450000
S      -46.78010000     -31.13560000     -67.96120000
S      -48.29350000     -30.59290000     -70.81340000
H      -47.54780000     -30.89120000     -73.21460000
