40
Properties=species:S:1:pos:R:3 #=T CELL(abcABC):=T 1.889726e+02=T 90.00000=T Traj:=T positionsangstrom=T Step:=T 0=T Bead:=T pbc="F F F"
C      -44.59520000     -36.70450000     -73.05760000
C      -45.09790000     -35.42270000     -72.99100000
C      -44.35230000     -34.40560000     -72.32190000
C      -43.07860000     -34.74190000     -71.83980000
C      -42.53260000     -35.99020000     -71.99900000
C      -43.33010000     -36.99340000     -72.55740000
H      -45.03930000     -37.48650000     -73.66680000
H      -44.76430000     -33.35630000     -72.15490000
H      -41.52860000     -36.06830000     -71.69550000
H      -42.93300000     -37.96100000     -72.83920000
C      -42.28510000     -33.65310000     -71.15270000
H      -42.76540000     -32.65050000     -71.32240000
H      -41.21200000     -33.68470000     -71.40430000
C      -46.48870000     -34.99880000     -73.45450000
H      -46.60520000     -33.89780000     -73.43010000
H      -46.60160000     -35.33110000     -74.54180000
S      -42.36950000     -33.69690000     -69.19320000
S      -47.79970000     -35.79550000     -72.43820000
C      -44.22050000     -33.84220000     -68.87270000
H      -44.74020000     -34.36570000     -69.70030000
H      -44.21400000     -34.58150000     -68.05080000
C      -47.35550000     -35.34580000     -70.74320000
H      -46.27930000     -35.48600000     -70.50910000
H      -47.93270000     -36.07780000     -70.08700000
C      -47.75640000     -33.93240000     -70.27050000
H      -48.90630000     -33.84440000     -70.27680000
H      -47.58450000     -33.75540000     -69.26750000
C      -45.07280000     -32.59020000     -68.40840000
H      -44.70870000     -32.15610000     -67.52040000
H      -46.06770000     -32.98760000     -68.12350000
C      -45.28980000     -31.69130000     -69.55840000
C      -44.52210000     -30.58000000     -69.67510000
C      -46.21110000     -31.92330000     -70.66960000
H      -43.77970000     -30.33390000     -68.88930000
C      -46.00480000     -30.82100000     -71.58920000
C      -47.29060000     -32.71250000     -71.05370000
C      -47.81230000     -32.28900000     -72.20920000
S      -44.78480000     -29.69920000     -71.18600000
S      -47.14580000     -30.92400000     -72.97150000
H      -48.75310000     -32.80390000     -72.44730000
