40
Properties=species:S:1:pos:R:3 #=T CELL(abcABC):=T 1.889726e+02=T 90.00000=T Traj:=T positionsangstrom=T Step:=T 0=T Bead:=T pbc="F F F"
C      -44.38080000     -36.58780000     -73.08190000
C      -45.07520000     -35.35690000     -72.93170000
C      -44.37620000     -34.35750000     -72.28060000
C      -42.97900000     -34.44800000     -71.99030000
C      -42.30400000     -35.65180000     -72.13490000
C      -43.07300000     -36.71230000     -72.68320000
H      -44.90230000     -37.46090000     -73.56610000
H      -44.74470000     -33.38960000     -72.12750000
H      -41.19240000     -35.81490000     -71.90960000
H      -42.54860000     -37.59930000     -72.77910000
C      -42.40010000     -33.18360000     -71.45860000
H      -43.14680000     -32.34440000     -71.61860000
H      -41.34010000     -32.95360000     -71.77190000
C      -46.51140000     -35.31790000     -73.41050000
H      -46.90250000     -34.26570000     -73.50690000
H      -46.61200000     -35.82510000     -74.35740000
S      -42.33680000     -33.19300000     -69.59530000
S      -47.66880000     -36.23160000     -72.22140000
C      -43.92660000     -34.10930000     -69.07180000
H      -44.14620000     -34.76460000     -69.92740000
H      -43.66230000     -34.75550000     -68.25290000
C      -47.18700000     -35.33290000     -70.66110000
H      -46.10250000     -35.17610000     -70.61940000
H      -47.50040000     -35.96760000     -69.91740000
C      -47.96490000     -34.08220000     -70.43960000
H      -48.95050000     -34.27630000     -70.62020000
H      -47.94210000     -33.99660000     -69.33690000
C      -44.99600000     -33.12090000     -68.57710000
H      -44.66900000     -32.72160000     -67.60000000
H      -45.84290000     -33.77440000     -68.35460000
C      -45.27320000     -32.05140000     -69.60850000
C      -44.52710000     -30.90380000     -69.56050000
C      -46.31780000     -31.99250000     -70.65900000
H      -43.68080000     -30.81580000     -68.80750000
C      -46.20260000     -30.80390000     -71.38610000
C      -47.52860000     -32.75360000     -71.07290000
C      -48.06760000     -32.21700000     -72.20030000
S      -44.96160000     -29.76600000     -70.84320000
S      -47.25990000     -30.73990000     -72.77810000
H      -48.92780000     -32.69930000     -72.66360000
