40
Properties=species:S:1:pos:R:3 #=T CELL(abcABC):=T 1.889726e+02=T 90.00000=T Traj:=T positionsangstrom=T Step:=T 0=T Bead:=T pbc="F F F"
C      -44.60990000     -29.14810000     -71.45950000
C      -45.20570000     -30.12650000     -72.32250000
C      -46.42540000     -30.68630000     -71.87070000
C      -46.99400000     -30.23530000     -70.62050000
C      -46.37490000     -29.24300000     -69.85300000
C      -45.21240000     -28.63220000     -70.30040000
H      -43.69010000     -28.68320000     -71.72770000
H      -47.01760000     -31.47030000     -72.33330000
H      -46.96110000     -28.78770000     -69.04790000
H      -44.84590000     -27.75860000     -69.70880000
C      -48.21310000     -30.96210000     -70.12800000
H      -48.62210000     -31.63820000     -70.87730000
H      -48.98880000     -30.21190000     -69.73830000
C      -44.61080000     -30.52380000     -73.72520000
H      -45.43120000     -30.51650000     -74.41450000
H      -43.86200000     -29.82520000     -74.03700000
S      -47.72590000     -32.23260000     -68.74590000
S      -43.93280000     -32.23210000     -73.68100000
C      -47.15010000     -33.59900000     -69.80270000
H      -47.99980000     -34.32270000     -69.97180000
H      -46.88480000     -33.32030000     -70.79370000
C      -43.08070000     -32.20840000     -72.06520000
H      -43.16530000     -31.18620000     -71.63670000
H      -42.04420000     -32.37720000     -72.35530000
C      -43.64500000     -33.23620000     -71.10040000
H      -42.86610000     -33.34790000     -70.29590000
H      -44.51690000     -32.82960000     -70.53380000
C      -46.13260000     -34.56490000     -69.08160000
H      -46.42210000     -34.86930000     -68.14160000
H      -45.22320000     -34.00720000     -68.82340000
C      -45.73050000     -35.67420000     -70.04050000
C      -46.30900000     -36.92670000     -69.97620000
C      -44.79280000     -35.57840000     -71.13130000
H      -47.15170000     -37.04510000     -69.33530000
C      -44.60410000     -36.83100000     -71.75730000
C      -43.86510000     -34.62510000     -71.68260000
C      -43.09790000     -35.03750000     -72.71290000
S      -45.80220000     -38.00670000     -71.23830000
S      -43.48940000     -36.69800000     -73.13420000
H      -42.42840000     -34.43700000     -73.29410000
