40
Properties=species:S:1:pos:R:3 #=T CELL(abcABC):=T 1.889726e+02=T 90.00000=T Traj:=T positionsangstrom=T Step:=T 0=T Bead:=T pbc="F F F"
C      -43.34440000     -36.00430000     -73.95020000
C      -44.38630000     -36.32980000     -73.00400000
C      -45.73700000     -35.87880000     -73.04030000
C      -45.97800000     -34.91730000     -74.11120000
C      -44.93230000     -34.52170000     -74.99590000
C      -43.63080000     -35.02800000     -74.91910000
H      -42.45400000     -36.55950000     -74.03390000
H      -46.54460000     -36.18110000     -72.32080000
H      -45.30610000     -33.96500000     -75.83390000
H      -42.92960000     -34.82770000     -75.68800000
C      -47.36910000     -34.36770000     -74.14410000
H      -47.99120000     -34.56130000     -73.22880000
H      -47.92990000     -34.83250000     -74.91330000
C      -44.06210000     -37.31460000     -71.94320000
H      -44.35680000     -38.22550000     -72.38780000
H      -42.95730000     -37.34530000     -71.72600000
S      -47.37250000     -32.55060000     -74.48150000
S      -44.79980000     -37.10360000     -70.31240000
C      -46.44490000     -32.02000000     -72.88230000
H      -45.44200000     -32.41120000     -72.77490000
H      -46.30460000     -30.92850000     -72.98740000
C      -43.99980000     -35.44250000     -69.96940000
H      -43.06660000     -35.31720000     -70.54790000
H      -43.76980000     -35.56200000     -68.89620000
C      -45.02390000     -34.32520000     -70.16860000
H      -44.99550000     -34.09370000     -71.21560000
H      -45.98240000     -34.68190000     -69.92610000
C      -47.22300000     -32.26970000     -71.53810000
H      -47.04280000     -33.31130000     -71.23540000
H      -48.25760000     -32.04570000     -71.54120000
C      -46.57320000     -31.41180000     -70.49550000
C      -46.84870000     -30.06400000     -70.24510000
C      -45.43660000     -31.77950000     -69.62080000
H      -47.56680000     -29.50770000     -70.92360000
C      -44.92530000     -30.72520000     -68.85170000
C      -44.71220000     -33.05120000     -69.37100000
C      -43.76540000     -32.91200000     -68.39220000
S      -45.84790000     -29.31930000     -69.01720000
S      -43.61670000     -31.20730000     -67.82620000
H      -43.17790000     -33.66390000     -67.96890000
