40
Properties=species:S:1:pos:R:3 #=T CELL(abcABC):=T 1.889726e+02=T 90.00000=T Traj:=T positionsangstrom=T Step:=T 0=T Bead:=T pbc="F F F"
C      -43.85270000     -36.24240000     -74.44930000
C      -44.70800000     -35.21540000     -74.03680000
C      -44.70090000     -34.88730000     -72.64740000
C      -43.89820000     -35.60340000     -71.68990000
C      -42.96640000     -36.50030000     -72.20650000
C      -42.93600000     -36.82730000     -73.60440000
H      -43.88260000     -36.63600000     -75.50800000
H      -45.45640000     -34.23600000     -72.18840000
H      -42.35930000     -37.04820000     -71.48640000
H      -42.25660000     -37.58310000     -73.89580000
C      -44.16710000     -35.23890000     -70.21860000
H      -44.25340000     -36.16390000     -69.61370000
H      -45.07250000     -34.70410000     -70.04390000
C      -45.55110000     -34.50210000     -75.08410000
H      -44.83010000     -33.88410000     -75.73670000
H      -45.95720000     -35.18320000     -75.79150000
S      -42.91040000     -34.22380000     -69.34230000
S      -46.80060000     -33.32130000     -74.53300000
C      -42.70490000     -32.80140000     -70.51370000
H      -41.61480000     -32.67540000     -70.56630000
H      -43.13150000     -33.15400000     -71.44390000
C      -45.98140000     -31.70450000     -74.10460000
H      -46.69260000     -30.90780000     -74.32740000
H      -45.17750000     -31.67130000     -74.78390000
C      -45.47260000     -31.39730000     -72.67620000
H      -44.50030000     -31.87910000     -72.37450000
H      -45.28030000     -30.24510000     -72.65130000
C      -43.33600000     -31.46400000     -70.00820000
H      -43.47920000     -30.88040000     -70.91060000
H      -42.65540000     -31.03770000     -69.23120000
C      -44.75400000     -31.71310000     -69.46250000
C      -44.93420000     -31.75440000     -68.10680000
C      -46.04800000     -31.85230000     -70.19020000
H      -44.23480000     -31.70800000     -67.26480000
C      -47.07060000     -32.18190000     -69.28440000
C      -46.40300000     -31.77450000     -71.56750000
C      -47.74440000     -32.14270000     -71.63570000
S      -46.61020000     -32.27030000     -67.61210000
S      -48.53060000     -32.58960000     -70.13850000
H      -48.32420000     -32.00820000     -72.55170000
