40
Properties=species:S:1:pos:R:3 #=T CELL(abcABC):=T 1.889726e+02=T 90.00000=T Traj:=T positionsangstrom=T Step:=T 0=T Bead:=T pbc="F F F"
C      -43.17180000     -30.18390000     -69.08800000
C      -43.19040000     -30.40740000     -70.49160000
C      -42.77970000     -31.68240000     -70.89490000
C      -42.41520000     -32.68140000     -69.98080000
C      -42.38280000     -32.46230000     -68.55220000
C      -42.73720000     -31.11510000     -68.18690000
H      -43.46190000     -29.23080000     -68.61720000
H      -43.06170000     -32.03460000     -71.93180000
H      -42.02130000     -33.28910000     -67.94190000
H      -42.75630000     -30.86730000     -67.13670000
C      -42.02130000     -34.07580000     -70.54690000
H      -41.07980000     -34.42260000     -70.05770000
H      -41.86920000     -33.97870000     -71.57610000
C      -43.88260000     -29.40740000     -71.36130000
H      -43.80470000     -28.39770000     -71.03220000
H      -43.65250000     -29.35840000     -72.40920000
S      -43.28150000     -35.39320000     -70.19440000
S      -45.74260000     -29.66410000     -71.07870000
C      -44.75820000     -34.35050000     -69.51640000
H      -44.60830000     -34.18470000     -68.45260000
H      -44.88570000     -33.39250000     -70.00420000
C      -46.01250000     -31.32230000     -71.84050000
H      -45.11780000     -31.93590000     -71.79070000
H      -46.04180000     -31.17500000     -72.90000000
C      -47.25670000     -32.09320000     -71.26540000
H      -47.01240000     -32.43970000     -70.25090000
H      -48.15820000     -31.47100000     -71.25060000
C      -46.03840000     -35.17900000     -69.63780000
H      -46.86110000     -34.51070000     -69.23440000
H      -45.89980000     -36.08600000     -69.03930000
C      -46.49300000     -35.54240000     -71.07900000
C      -46.32270000     -36.84710000     -71.48860000
C      -47.09170000     -34.64300000     -72.05670000
H      -46.04240000     -37.73670000     -70.99940000
C      -47.37640000     -35.40850000     -73.18950000
C      -47.50510000     -33.31020000     -72.14460000
C      -48.00960000     -33.11960000     -73.43830000
S      -46.84460000     -37.04680000     -73.08660000
S      -47.97590000     -34.50490000     -74.53600000
H      -48.46610000     -32.17510000     -73.79910000
