40
Properties=species:S:1:pos:R:3 #=T CELL(abcABC):=T 1.889726e+02=T 90.00000=T Traj:=T positionsangstrom=T Step:=T 0=T Bead:=T pbc="F F F"
C      -44.08250000     -36.22570000     -74.51170000
C      -44.85350000     -35.14570000     -73.94810000
C      -44.79390000     -35.00010000     -72.57200000
C      -43.94420000     -35.66440000     -71.75260000
C      -43.05180000     -36.59820000     -72.33970000
C      -43.22140000     -36.96920000     -73.67950000
H      -44.14850000     -36.54790000     -75.57500000
H      -45.38400000     -34.18630000     -72.14140000
H      -42.38950000     -37.22560000     -71.74300000
H      -42.86420000     -37.94120000     -73.99270000
C      -43.81880000     -35.29140000     -70.26640000
H      -43.83490000     -36.17600000     -69.56520000
H      -44.70800000     -34.70110000     -70.02980000
C      -45.54700000     -34.22660000     -74.92550000
H      -44.77790000     -33.53180000     -75.40710000
H      -45.99460000     -34.75850000     -75.77620000
S      -42.27030000     -34.33110000     -70.01090000
S      -47.00470000     -33.30130000     -74.26650000
C      -42.75040000     -32.80890000     -70.99240000
H      -41.81040000     -32.50680000     -71.47740000
H      -43.50140000     -33.20420000     -71.68870000
C      -46.35390000     -31.57150000     -74.03790000
H      -47.25850000     -30.98680000     -74.15130000
H      -45.57370000     -31.41480000     -74.84190000
C      -45.68390000     -31.42370000     -72.66730000
H      -44.66530000     -31.92810000     -72.65360000
H      -45.31350000     -30.41510000     -72.51180000
C      -43.38170000     -31.65330000     -70.15490000
H      -43.62060000     -30.83100000     -70.76520000
H      -42.61210000     -31.27930000     -69.49340000
C      -44.68200000     -31.97250000     -69.41410000
C      -44.79410000     -32.15570000     -68.07870000
C      -45.95040000     -32.02820000     -70.11880000
H      -43.88940000     -32.01520000     -67.51430000
C      -46.99070000     -32.23910000     -69.16010000
C      -46.51500000     -31.77250000     -71.43890000
C      -47.89630000     -31.85310000     -71.38660000
S      -46.47250000     -32.36350000     -67.52090000
S      -48.64480000     -32.12310000     -69.80720000
H      -48.53990000     -31.55990000     -72.18860000
