40
Properties=species:S:1:pos:R:3 #=T CELL(abcABC):=T 1.889726e+02=T 90.00000=T Traj:=T positionsangstrom=T Step:=T 0=T Bead:=T pbc="F F F"
C      -43.09350000     -30.27570000     -69.00820000
C      -43.21720000     -30.47620000     -70.40450000
C      -42.79210000     -31.74830000     -70.86880000
C      -42.37030000     -32.78970000     -69.99550000
C      -42.20750000     -32.52890000     -68.60220000
C      -42.56770000     -31.23930000     -68.16600000
H      -43.49890000     -29.36380000     -68.60360000
H      -42.61400000     -31.80970000     -71.93360000
H      -41.77180000     -33.24150000     -67.96830000
H      -42.47420000     -30.96990000     -67.11620000
C      -42.08260000     -34.17200000     -70.53020000
H      -41.08350000     -34.60160000     -70.22440000
H      -42.16580000     -34.07760000     -71.65000000
C      -43.97650000     -29.46620000     -71.32120000
H      -43.70650000     -28.42460000     -71.00220000
H      -43.78860000     -29.62420000     -72.40650000
S      -43.43370000     -35.32730000     -69.91110000
S      -45.78730000     -29.63020000     -71.03000000
C      -44.86050000     -34.28580000     -69.68110000
H      -44.67920000     -33.81120000     -68.68000000
H      -44.89980000     -33.38690000     -70.37850000
C      -45.87160000     -31.38970000     -71.78610000
H      -45.00210000     -31.99810000     -71.52370000
H      -45.88790000     -31.20060000     -72.93530000
C      -47.20640000     -32.13460000     -71.36300000
H      -47.15680000     -32.36140000     -70.29470000
H      -48.07040000     -31.47260000     -71.41700000
C      -46.21590000     -35.00100000     -69.74340000
H      -46.92290000     -34.24180000     -69.45050000
H      -46.33140000     -35.80050000     -69.06990000
C      -46.52770000     -35.49290000     -71.08340000
C      -46.47710000     -36.83930000     -71.34800000
C      -46.95060000     -34.61750000     -72.18620000
H      -45.91580000     -37.59490000     -70.85750000
C      -47.27390000     -35.38670000     -73.34830000
C      -47.39250000     -33.28270000     -72.25440000
C      -47.89170000     -33.04780000     -73.55830000
S      -46.86230000     -37.05210000     -73.15850000
S      -47.94900000     -34.48750000     -74.58410000
H      -48.45730000     -32.17890000     -73.81580000
