40
Properties=species:S:1:pos:R:3 #=T CELL(abcABC):=T 1.889726e+02=T 90.00000=T Traj:=T positionsangstrom=T Step:=T 0=T Bead:=T pbc="F F F"
C      -45.20340000     -36.13240000     -68.83680000
C      -43.97570000     -35.69030000     -69.39460000
C      -43.62910000     -35.91520000     -70.69950000
C      -44.54860000     -36.63100000     -71.46070000
C      -45.77280000     -37.07730000     -70.95090000
C      -46.06670000     -36.87080000     -69.58570000
H      -45.32950000     -35.95020000     -67.81860000
H      -42.66450000     -35.61200000     -71.09220000
H      -46.45320000     -37.61250000     -71.66360000
H      -47.00100000     -37.30950000     -69.14060000
C      -44.29930000     -36.89850000     -72.94150000
H      -45.10060000     -37.66530000     -73.22050000
H      -43.33660000     -37.42210000     -73.04670000
C      -43.06450000     -34.96710000     -68.42880000
H      -43.67110000     -34.62770000     -67.52420000
H      -42.23150000     -35.59150000     -68.00620000
S      -44.04340000     -35.43690000     -74.01620000
S      -42.22100000     -33.42260000     -69.04030000
C      -45.78580000     -34.65870000     -73.90340000
H      -45.87870000     -33.92710000     -74.73540000
H      -46.54480000     -35.49770000     -74.11660000
C      -43.32810000     -32.37080000     -70.00950000
H      -43.23780000     -32.55900000     -71.09220000
H      -43.10880000     -31.37270000     -69.93210000
C      -44.79020000     -32.45100000     -69.63060000
H      -45.26130000     -33.41490000     -69.80960000
H      -44.89430000     -32.21660000     -68.58420000
C      -46.01040000     -34.01780000     -72.51100000
H      -45.04290000     -34.08130000     -72.06560000
H      -46.76800000     -34.57470000     -72.07770000
C      -46.60220000     -32.59360000     -72.69390000
C      -47.46590000     -32.17350000     -73.68700000
C      -46.30660000     -31.52450000     -71.67980000
H      -47.67690000     -32.65750000     -74.67710000
C      -47.06980000     -30.39410000     -72.02860000
C      -45.64720000     -31.40370000     -70.37240000
C      -46.09230000     -30.36140000     -69.62120000
S      -48.08120000     -30.57390000     -73.46540000
S      -47.00710000     -29.20560000     -70.72190000
H      -45.83150000     -30.07430000     -68.56190000
