40
Properties=species:S:1:pos:R:3 #=T CELL(abcABC):=T 1.889726e+02=T 90.00000=T Traj:=T positionsangstrom=T Step:=T 0=T Bead:=T pbc="F F F"
C      -43.40430000     -29.87550000     -68.83970000
C      -43.41870000     -30.39510000     -70.10680000
C      -43.10430000     -31.78620000     -70.15110000
C      -42.69400000     -32.60710000     -69.09900000
C      -42.62390000     -31.96220000     -67.84680000
C      -42.96120000     -30.62200000     -67.76020000
H      -43.83810000     -28.82060000     -68.61080000
H      -43.02970000     -32.12990000     -71.17870000
H      -42.16390000     -32.49580000     -66.97060000
H      -42.99880000     -30.21250000     -66.71200000
C      -42.37110000     -34.11670000     -69.29610000
H      -41.92880000     -34.49890000     -68.27500000
H      -41.69700000     -34.17250000     -70.15360000
C      -43.89830000     -29.65990000     -71.31730000
H      -43.79030000     -28.59000000     -71.19430000
H      -43.43320000     -30.01770000     -72.23970000
S      -43.94580000     -35.06790000     -69.60630000
S      -45.76130000     -29.79510000     -71.52290000
C      -45.31240000     -33.85610000     -69.65370000
H      -45.40350000     -33.31940000     -68.75150000
H      -45.12630000     -33.13760000     -70.47860000
C      -45.83430000     -31.34050000     -72.59780000
H      -44.91030000     -31.93820000     -72.45090000
H      -45.73870000     -30.90010000     -73.59090000
C      -47.06260000     -32.11340000     -72.22390000
H      -47.15280000     -32.38230000     -71.22260000
H      -47.92220000     -31.58170000     -72.47380000
C      -46.61260000     -34.57500000     -69.74230000
H      -47.42670000     -33.93350000     -69.47560000
H      -46.73060000     -35.37600000     -68.98620000
C      -46.64210000     -35.26820000     -71.16490000
C      -46.46460000     -36.64990000     -71.22860000
C      -46.91230000     -34.75520000     -72.47750000
H      -46.19750000     -37.42000000     -70.48620000
C      -46.95830000     -35.74490000     -73.43720000
C      -47.05880000     -33.47000000     -73.02160000
C      -47.04400000     -33.46820000     -74.40050000
S      -46.55050000     -37.32320000     -72.85350000
S      -47.18250000     -35.10830000     -75.06190000
H      -47.06290000     -32.60090000     -75.13270000
