40
Properties=species:S:1:pos:R:3 #=T CELL(abcABC):=T 1.889726e+02=T 90.00000=T Traj:=T positionsangstrom=T Step:=T 0=T Bead:=T pbc="F F F"
C      -43.17690000     -29.85070000     -68.76390000
C      -43.34300000     -30.34710000     -70.06510000
C      -42.99010000     -31.70600000     -70.28830000
C      -42.65830000     -32.58480000     -69.27100000
C      -42.55460000     -32.01680000     -68.01020000
C      -42.81060000     -30.70440000     -67.74360000
H      -43.24060000     -28.74570000     -68.67050000
H      -43.18670000     -32.10210000     -71.23330000
H      -42.29520000     -32.61360000     -67.11790000
H      -42.55870000     -30.33890000     -66.75600000
C      -42.33700000     -34.08420000     -69.35510000
H      -41.73450000     -34.40250000     -68.48380000
H      -41.90510000     -34.47030000     -70.33050000
C      -43.84380000     -29.58350000     -71.27370000
H      -43.59550000     -28.48780000     -71.27290000
H      -43.35380000     -29.95810000     -72.19530000
S      -43.84690000     -35.15120000     -69.27970000
S      -45.71680000     -29.84050000     -71.55940000
C      -45.38340000     -33.97300000     -69.47040000
H      -45.53940000     -33.37000000     -68.52300000
H      -45.22170000     -33.10090000     -70.18240000
C      -45.80380000     -31.36010000     -72.59330000
H      -44.88510000     -31.99160000     -72.53290000
H      -45.92800000     -31.05580000     -73.62040000
C      -47.17040000     -32.15820000     -72.17020000
H      -47.01730000     -32.13670000     -71.05400000
H      -48.03360000     -31.50640000     -72.46800000
C      -46.72790000     -34.60440000     -69.88150000
H      -47.47300000     -33.79790000     -69.81130000
H      -47.01820000     -35.34830000     -69.06500000
C      -46.67390000     -35.31950000     -71.19850000
C      -46.53430000     -36.70840000     -71.27420000
C      -46.81680000     -34.72750000     -72.55050000
H      -46.55220000     -37.28620000     -70.31500000
C      -46.72380000     -35.69500000     -73.56140000
C      -47.32610000     -33.42760000     -72.95500000
C      -47.63230000     -33.45320000     -74.31540000
S      -46.59860000     -37.32370000     -72.93990000
S      -47.19960000     -34.97060000     -75.12030000
H      -47.96280000     -32.63000000     -74.89330000
