40
Properties=species:S:1:pos:R:3 #=T CELL(abcABC):=T 1.889726e+02=T 90.00000=T Traj:=T positionsangstrom=T Step:=T 0=T Bead:=T pbc="F F F"
C      -42.24400000     -29.88370000     -69.25410000
C      -42.99000000     -30.41540000     -70.28180000
C      -42.97580000     -31.81140000     -70.39100000
C      -42.39610000     -32.61770000     -69.42180000
C      -41.70040000     -32.03970000     -68.36570000
C      -41.51450000     -30.67810000     -68.34950000
H      -42.38280000     -28.77400000     -69.00500000
H      -43.50590000     -32.27290000     -71.18970000
H      -41.13310000     -32.72830000     -67.68710000
H      -40.89820000     -30.09760000     -67.64930000
C      -42.29200000     -34.21990000     -69.52970000
H      -41.59170000     -34.56140000     -68.80670000
H      -41.91620000     -34.47810000     -70.51200000
C      -43.93300000     -29.61570000     -71.21640000
H      -43.82220000     -28.57630000     -71.02840000
H      -43.66370000     -29.71400000     -72.23810000
S      -43.84430000     -35.14170000     -69.09500000
S      -45.72470000     -29.96930000     -71.06790000
C      -45.34550000     -34.20150000     -69.58990000
H      -45.54700000     -33.37600000     -68.93660000
H      -45.17330000     -33.71010000     -70.49800000
C      -46.06710000     -31.52870000     -72.16780000
H      -45.26850000     -32.23530000     -72.08740000
H      -46.03230000     -31.14340000     -73.23470000
C      -47.45250000     -32.11840000     -71.77340000
H      -47.44160000     -32.57630000     -70.78310000
H      -48.24880000     -31.43590000     -71.97000000
C      -46.65630000     -35.02150000     -69.72690000
H      -47.54160000     -34.49950000     -69.22160000
H      -46.49070000     -36.01490000     -69.19480000
C      -46.86200000     -35.49960000     -71.23800000
C      -46.62240000     -36.80950000     -71.55560000
C      -47.16840000     -34.69160000     -72.44380000
H      -46.41850000     -37.57880000     -70.82180000
C      -47.09030000     -35.49780000     -73.54690000
C      -47.63580000     -33.31570000     -72.77020000
C      -48.08980000     -33.19950000     -74.06180000
S      -46.72870000     -37.09210000     -73.28930000
S      -47.67510000     -34.67430000     -75.06510000
H      -48.52340000     -32.30710000     -74.57250000
