40
Properties=species:S:1:pos:R:3 #=T CELL(abcABC):=T 1.889726e+02=T 90.00000=T Traj:=T positionsangstrom=T Step:=T 0=T Bead:=T pbc="F F F"
C      -43.50450000     -29.87950000     -68.91320000
C      -43.35360000     -30.39460000     -70.21520000
C      -42.96430000     -31.76500000     -70.23570000
C      -42.68160000     -32.55370000     -69.07760000
C      -42.75320000     -31.91180000     -67.80470000
C      -43.19150000     -30.54040000     -67.73570000
H      -43.75820000     -28.90160000     -68.78830000
H      -43.00150000     -32.32920000     -71.15540000
H      -42.59660000     -32.38710000     -66.85100000
H      -43.21700000     -30.05800000     -66.80800000
C      -42.37700000     -34.05290000     -69.26540000
H      -41.90080000     -34.52630000     -68.40630000
H      -41.51390000     -34.09840000     -70.07110000
C      -43.88860000     -29.47620000     -71.30620000
H      -43.68340000     -28.39340000     -71.06970000
H      -43.36450000     -29.65180000     -72.27350000
S      -43.99520000     -34.93300000     -69.87190000
S      -45.74180000     -29.62340000     -71.50790000
C      -45.35710000     -33.69110000     -69.61480000
H      -45.34720000     -33.05810000     -68.70720000
H      -45.18440000     -32.97430000     -70.41980000
C      -45.78360000     -31.32190000     -72.48300000
H      -44.99720000     -32.00800000     -72.05560000
H      -45.55270000     -31.04840000     -73.52980000
C      -47.05750000     -32.10380000     -72.41170000
H      -47.37910000     -32.14940000     -71.29770000
H      -47.83220000     -31.51270000     -72.95140000
C      -46.65030000     -34.47930000     -69.86160000
H      -47.42380000     -33.60320000     -69.91650000
H      -46.82590000     -35.18430000     -68.96780000
C      -46.65930000     -35.35430000     -71.04470000
C      -46.58010000     -36.74570000     -71.06020000
C      -46.85030000     -34.83480000     -72.38790000
H      -46.39600000     -37.37480000     -70.19860000
C      -46.85110000     -35.88210000     -73.34280000
C      -47.01790000     -33.51270000     -73.05230000
C      -47.14840000     -33.68870000     -74.42120000
S      -46.59170000     -37.51290000     -72.70190000
S      -46.98410000     -35.29880000     -75.00890000
H      -47.14730000     -32.85170000     -75.01660000
