40
Properties=species:S:1:pos:R:3 #=T CELL(abcABC):=T 1.889726e+02=T 90.00000=T Traj:=T positionsangstrom=T Step:=T 0=T Bead:=T pbc="F F F"
C      -46.03610000     -35.08510000     -75.46590000
C      -46.49490000     -34.50730000     -74.26930000
C      -45.90680000     -34.89380000     -73.00370000
C      -44.79570000     -35.72150000     -72.90820000
C      -44.42760000     -36.39210000     -74.09680000
C      -44.98550000     -36.04060000     -75.37270000
H      -46.51080000     -34.78620000     -76.45370000
H      -46.36230000     -34.48870000     -72.09400000
H      -43.53130000     -36.94900000     -73.97940000
H      -44.58450000     -36.54710000     -76.21410000
C      -43.94510000     -35.99050000     -71.66640000
H      -43.68000000     -37.06380000     -71.42490000
H      -44.46450000     -35.61790000     -70.85320000
C      -47.63080000     -33.51710000     -74.29230000
H      -47.46040000     -32.72960000     -75.10020000
H      -48.50540000     -34.09710000     -74.66460000
S      -42.36830000     -34.97370000     -71.59960000
S      -48.30380000     -32.74570000     -72.74790000
C      -42.85800000     -33.28770000     -72.00720000
H      -42.25000000     -32.96740000     -72.87410000
H      -43.95450000     -33.36700000     -72.32610000
C      -47.31300000     -31.22350000     -72.71860000
H      -47.95160000     -30.52880000     -72.34610000
H      -47.21560000     -30.76390000     -73.74360000
C      -45.95320000     -31.34250000     -72.04230000
H      -45.39510000     -32.09210000     -72.50410000
H      -45.47740000     -30.33440000     -72.30350000
C      -42.56300000     -32.30540000     -70.84390000
H      -42.73800000     -31.30690000     -71.21360000
H      -41.44620000     -32.31930000     -70.49220000
C      -43.55710000     -32.46290000     -69.72390000
C      -43.07950000     -32.84400000     -68.51330000
C      -44.95560000     -32.14970000     -69.71260000
H      -42.09030000     -33.28770000     -68.32640000
C      -45.49910000     -32.36150000     -68.41050000
C      -46.03290000     -31.69200000     -70.60500000
C      -47.23260000     -31.54520000     -69.95690000
S      -44.30530000     -32.83530000     -67.27650000
S      -47.21430000     -32.04760000     -68.24040000
H      -48.23380000     -31.32900000     -70.37420000
