40
Properties=species:S:1:pos:R:3 #=T CELL(abcABC):=T 1.889726e+02=T 90.00000=T Traj:=T positionsangstrom=T Step:=T 0=T Bead:=T pbc="F F F"
C      -44.37410000     -33.06480000     -74.98120000
C      -44.77610000     -31.89770000     -74.45330000
C      -46.10470000     -31.81810000     -73.91290000
C      -46.99490000     -32.89880000     -74.02410000
C      -46.56350000     -34.09850000     -74.70940000
C      -45.25140000     -34.15490000     -75.23710000
H      -43.39820000     -33.15660000     -75.29170000
H      -46.45640000     -30.88210000     -73.55200000
H      -47.25170000     -34.92110000     -74.87970000
H      -44.97300000     -35.08160000     -75.73610000
C      -48.43410000     -32.62000000     -73.66170000
H      -49.15070000     -33.37470000     -73.93950000
H      -48.65250000     -31.60050000     -74.05820000
C      -43.94610000     -30.67330000     -74.29610000
H      -42.99620000     -30.94780000     -74.79920000
H      -44.47670000     -29.88860000     -74.80840000
S      -48.59960000     -32.37760000     -71.79700000
S      -43.66760000     -30.12830000     -72.49840000
C      -47.73480000     -33.79920000     -70.97810000
H      -48.34150000     -34.70720000     -70.93230000
H      -46.88210000     -34.00730000     -71.61300000
C      -43.01630000     -31.57850000     -71.50460000
H      -42.35610000     -31.09020000     -70.74030000
H      -42.34120000     -32.28960000     -72.05310000
C      -44.20740000     -32.31760000     -70.85310000
H      -44.71980000     -31.59150000     -70.27410000
H      -44.89670000     -32.69570000     -71.71330000
C      -47.24620000     -33.32910000     -69.63150000
H      -48.14230000     -33.24570000     -68.98260000
H      -46.77510000     -32.35400000     -69.66100000
C      -46.29860000     -34.25850000     -69.04250000
C      -46.72880000     -35.32130000     -68.24570000
C      -44.90640000     -34.33660000     -69.29530000
H      -47.79410000     -35.57570000     -68.18320000
C      -44.30790000     -35.41440000     -68.58810000
C      -43.90770000     -33.53280000     -69.95880000
C      -42.62170000     -34.07300000     -69.78440000
S      -45.47050000     -36.40240000     -67.70310000
S      -42.59970000     -35.55760000     -68.97020000
H      -41.73140000     -33.63250000     -70.14770000
