40
Properties=species:S:1:pos:R:3 #=T CELL(abcABC):=T 1.889726e+02=T 90.00000=T Traj:=T positionsangstrom=T Step:=T 0=T Bead:=T pbc="F F F"
C      -44.57390000     -31.62780000     -74.41740000
C      -45.59320000     -30.97440000     -73.63870000
C      -46.82490000     -31.54360000     -73.51010000
C      -47.11690000     -32.79380000     -74.10320000
C      -46.20130000     -33.40490000     -74.88510000
C      -44.90970000     -32.88810000     -74.97990000
H      -43.62830000     -31.13970000     -74.58440000
H      -47.51460000     -31.03430000     -72.81950000
H      -46.36120000     -34.37260000     -75.46020000
H      -44.15460000     -33.39150000     -75.58020000
C      -48.49900000     -33.30160000     -73.91410000
H      -48.60380000     -34.31850000     -74.44630000
H      -49.26680000     -32.72440000     -74.27060000
C      -45.31030000     -29.53920000     -73.03530000
H      -44.67900000     -28.96740000     -73.69530000
H      -46.29120000     -29.00780000     -73.15300000
S      -48.86670000     -33.69940000     -72.13160000
S      -44.54890000     -29.56850000     -71.32740000
C      -47.47310000     -34.69160000     -71.34690000
H      -47.79590000     -35.72890000     -71.31730000
H      -46.50650000     -34.61300000     -71.95460000
C      -43.67390000     -31.18940000     -71.19930000
H      -42.78750000     -30.92910000     -70.62580000
H      -43.32830000     -31.59240000     -72.11870000
C      -44.59080000     -32.28580000     -70.59840000
H      -45.07640000     -32.00440000     -69.60320000
H      -45.43720000     -32.51110000     -71.37360000
C      -47.12220000     -34.23080000     -69.88760000
H      -47.90020000     -34.44980000     -69.22540000
H      -46.98130000     -33.18150000     -69.78110000
C      -45.91250000     -34.91310000     -69.35340000
C      -46.05680000     -36.00600000     -68.54660000
C      -44.48470000     -34.68190000     -69.69890000
H      -46.98750000     -36.48880000     -68.19860000
C      -43.63880000     -35.64180000     -69.13110000
C      -43.82520000     -33.50470000     -70.25780000
C      -42.40380000     -33.75670000     -70.32550000
S      -44.53030000     -36.87990000     -68.24260000
S      -41.98310000     -35.19180000     -69.46500000
H      -41.61180000     -33.15200000     -70.77430000
