40
Properties=species:S:1:pos:R:3 #=T CELL(abcABC):=T 1.889726e+02=T 90.00000=T Traj:=T positionsangstrom=T Step:=T 0=T Bead:=T pbc="F F F"
C      -44.63580000     -29.29760000     -69.44600000
C      -44.01990000     -30.05060000     -70.50250000
C      -43.22100000     -31.17380000     -70.22790000
C      -43.05850000     -31.55690000     -68.87640000
C      -43.68860000     -30.87080000     -67.82540000
C      -44.47710000     -29.72100000     -68.14390000
H      -45.26540000     -28.48110000     -69.84020000
H      -42.68530000     -31.74440000     -70.99010000
H      -43.66090000     -31.27250000     -66.74870000
H      -45.04690000     -29.21740000     -67.35710000
C      -42.11420000     -32.67850000     -68.65350000
H      -41.69590000     -32.74220000     -67.63790000
H      -41.23210000     -32.71740000     -69.34910000
C      -44.32520000     -29.77210000     -71.94500000
H      -44.11300000     -28.75510000     -72.21440000
H      -43.67830000     -30.44180000     -72.51680000
S      -42.91840000     -34.44280000     -68.88800000
S      -46.13950000     -30.09050000     -72.28350000
C      -44.81270000     -34.36640000     -69.00730000
H      -45.28910000     -35.21950000     -68.55940000
H      -45.14590000     -33.62770000     -68.23300000
C      -46.03850000     -31.68600000     -73.19460000
H      -45.06090000     -32.09400000     -73.11040000
H      -46.09650000     -31.44340000     -74.31960000
C      -47.25360000     -32.58140000     -72.75330000
H      -47.20490000     -32.55080000     -71.69690000
H      -48.14590000     -32.15130000     -73.13510000
C      -45.37720000     -34.04150000     -70.43780000
H      -44.57490000     -33.62180000     -71.08890000
H      -46.17540000     -33.30130000     -70.37440000
C      -45.86970000     -35.21730000     -71.21620000
C      -45.64880000     -36.56220000     -70.93000000
C      -46.44990000     -35.09560000     -72.53490000
H      -45.42200000     -36.91480000     -69.93580000
C      -46.61190000     -36.33090000     -73.17760000
C      -47.06090000     -34.03480000     -73.31550000
C      -47.73350000     -34.49950000     -74.44890000
S      -46.14300000     -37.69370000     -72.19510000
S      -47.42020000     -36.19870000     -74.70490000
H      -48.05570000     -33.76770000     -75.16030000
