40
Properties=species:S:1:pos:R:3 #=T CELL(abcABC):=T 1.889726e+02=T 90.00000=T Traj:=T positionsangstrom=T Step:=T 0=T Bead:=T pbc="F F F"
C      -44.78320000     -29.46950000     -69.90070000
C      -44.08390000     -30.23410000     -70.84730000
C      -43.41870000     -31.35610000     -70.38310000
C      -43.25180000     -31.58620000     -68.98600000
C      -44.10410000     -30.81740000     -68.14610000
C      -44.88450000     -29.74060000     -68.55320000
H      -45.39790000     -28.61290000     -70.20040000
H      -42.77010000     -31.99980000     -71.02090000
H      -44.08510000     -31.10780000     -67.05090000
H      -45.56580000     -29.21860000     -67.91500000
C      -42.45510000     -32.71270000     -68.38360000
H      -42.39940000     -32.64430000     -67.26950000
H      -41.43130000     -32.61310000     -68.80090000
C      -44.12810000     -29.86520000     -72.29940000
H      -43.98810000     -28.77910000     -72.35810000
H      -43.32860000     -30.33500000     -72.87990000
S      -43.15200000     -34.41710000     -68.98000000
S      -45.82790000     -30.18700000     -72.95620000
C      -44.95780000     -34.35220000     -68.67280000
H      -45.22360000     -35.29530000     -68.15240000
H      -45.08830000     -33.51560000     -67.92280000
C      -45.87510000     -32.08360000     -72.84840000
H      -45.21080000     -32.49880000     -72.13590000
H      -45.54880000     -32.45870000     -73.87890000
C      -47.37360000     -32.54710000     -72.71650000
H      -47.72260000     -32.27850000     -71.69700000
H      -48.06460000     -32.14870000     -73.48060000
C      -45.85460000     -34.05860000     -69.89310000
H      -45.71270000     -33.13770000     -70.39850000
H      -46.89780000     -34.12380000     -69.46090000
C      -45.77960000     -35.12640000     -70.96750000
C      -45.12320000     -36.33730000     -70.79540000
C      -46.52300000     -35.01170000     -72.23370000
H      -44.56790000     -36.78400000     -69.97080000
C      -46.51220000     -36.22680000     -72.98210000
C      -47.32150000     -34.00570000     -72.90020000
C      -47.82830000     -34.51550000     -74.03830000
S      -45.44030000     -37.42080000     -72.17330000
S      -47.41490000     -36.16500000     -74.46280000
H      -48.36910000     -33.93580000     -74.72460000
