40
Properties=species:S:1:pos:R:3 #=T CELL(abcABC):=T 1.889726e+02=T 90.00000=T Traj:=T positionsangstrom=T Step:=T 0=T Bead:=T pbc="F F F"
C      -44.58170000     -32.65080000     -74.86460000
C      -44.98950000     -31.46060000     -74.10040000
C      -46.33640000     -31.38880000     -73.78220000
C      -47.18810000     -32.56580000     -74.03730000
C      -46.75800000     -33.63590000     -74.75950000
C      -45.41670000     -33.70910000     -75.19780000
H      -43.51320000     -32.56260000     -75.14870000
H      -46.69930000     -30.53300000     -73.08660000
H      -47.50850000     -34.37610000     -74.94570000
H      -45.04650000     -34.63320000     -75.60060000
C      -48.59530000     -32.60570000     -73.39550000
H      -49.01950000     -33.52050000     -73.76010000
H      -49.15830000     -31.73000000     -73.59580000
C      -44.00970000     -30.37380000     -73.74880000
H      -42.94340000     -30.78860000     -73.79240000
H      -44.05560000     -29.50000000     -74.41370000
S      -48.54450000     -32.64530000     -71.57170000
S      -44.30090000     -29.61250000     -72.00910000
C      -47.62210000     -34.20720000     -71.19970000
H      -48.27410000     -35.08840000     -71.44070000
H      -46.67900000     -34.29210000     -71.77170000
C      -43.57050000     -31.11840000     -71.00470000
H      -42.89640000     -30.68270000     -70.27980000
H      -42.95470000     -31.68540000     -71.74490000
C      -44.58380000     -32.13680000     -70.38520000
H      -45.19930000     -31.71230000     -69.59880000
H      -45.35690000     -32.46920000     -71.20340000
C      -47.35240000     -34.27290000     -69.69810000
H      -48.09010000     -34.93220000     -69.21170000
H      -47.31460000     -33.35520000     -69.11550000
C      -46.11760000     -35.10130000     -69.55370000
C      -46.21580000     -36.42120000     -69.10670000
C      -44.70680000     -34.66360000     -69.56230000
H      -47.11080000     -36.95740000     -68.87170000
C      -43.93090000     -35.63660000     -68.99800000
C      -43.97890000     -33.46380000     -69.93420000
C      -42.61850000     -33.58620000     -69.73250000
S      -44.72700000     -37.10860000     -68.57760000
S      -42.25990000     -35.15020000     -68.97100000
H      -41.85710000     -32.85650000     -69.82610000
