40
Properties=species:S:1:pos:R:3 #=T CELL(abcABC):=T 1.889726e+02=T 90.00000=T Traj:=T positionsangstrom=T Step:=T 0=T Bead:=T pbc="F F F"
C      -44.66480000     -29.41150000     -69.51070000
C      -44.07500000     -30.17250000     -70.53560000
C      -43.27370000     -31.33530000     -70.17710000
C      -43.08900000     -31.60460000     -68.80450000
C      -43.71740000     -30.80060000     -67.79120000
C      -44.50400000     -29.70990000     -68.16720000
H      -45.24630000     -28.54920000     -69.80850000
H      -42.97540000     -32.00370000     -71.03640000
H      -43.59400000     -31.10880000     -66.76080000
H      -45.07070000     -29.13550000     -67.42850000
C      -42.30840000     -32.85340000     -68.39600000
H      -42.35650000     -32.84550000     -67.33310000
H      -41.24850000     -32.73960000     -68.67390000
C      -44.31770000     -29.67900000     -71.90540000
H      -44.21900000     -28.55900000     -71.91260000
H      -43.64390000     -30.02260000     -72.69320000
S      -42.92420000     -34.43010000     -69.07790000
S      -46.11960000     -29.96480000     -72.52130000
C      -44.78010000     -34.20940000     -68.94950000
H      -45.15450000     -35.14080000     -68.56220000
H      -44.96050000     -33.30340000     -68.34570000
C      -45.86210000     -31.73040000     -73.08460000
H      -45.19470000     -32.19250000     -72.44800000
H      -45.52020000     -31.65120000     -74.14190000
C      -47.19700000     -32.51280000     -72.93430000
H      -47.60710000     -32.44970000     -71.85720000
H      -47.96200000     -32.01040000     -73.60360000
C      -45.50790000     -34.00070000     -70.32310000
H      -44.90150000     -33.30900000     -70.88340000
H      -46.46390000     -33.52050000     -70.04520000
C      -45.81210000     -35.19560000     -71.21030000
C      -45.32710000     -36.46860000     -71.02070000
C      -46.49950000     -35.08070000     -72.46180000
H      -44.65510000     -36.76520000     -70.29600000
C      -46.75980000     -36.33740000     -73.00550000
C      -47.07550000     -34.07660000     -73.28800000
C      -47.68490000     -34.56360000     -74.42840000
S      -45.96500000     -37.67310000     -72.23600000
S      -47.57720000     -36.30490000     -74.51740000
H      -48.19070000     -33.98310000     -75.15650000
