40
Properties=species:S:1:pos:R:3 #=T CELL(abcABC):=T 1.889726e+02=T 90.00000=T Traj:=T positionsangstrom=T Step:=T 0=T Bead:=T pbc="F F F"
C      -44.91070000     -35.97030000     -68.62920000
C      -43.77810000     -35.59890000     -69.33230000
C      -43.55750000     -35.97160000     -70.67220000
C      -44.57900000     -36.64160000     -71.31370000
C      -45.76920000     -37.00890000     -70.64270000
C      -45.97750000     -36.58420000     -69.31950000
H      -45.01390000     -35.64390000     -67.58920000
H      -42.68400000     -35.54480000     -71.18360000
H      -46.46080000     -37.49150000     -71.23280000
H      -46.93880000     -36.83120000     -68.89630000
C      -44.55470000     -36.94260000     -72.80750000
H      -45.54360000     -37.16820000     -73.26340000
H      -43.90380000     -37.81590000     -72.88180000
C      -42.81880000     -34.72900000     -68.54740000
H      -43.22510000     -34.54890000     -67.55750000
H      -41.90200000     -35.36830000     -68.33040000
S      -43.77500000     -35.60440000     -73.78020000
S      -42.21650000     -33.19240000     -69.31800000
C      -45.02720000     -34.11710000     -73.81230000
H      -44.38060000     -33.20790000     -73.71190000
H      -45.47560000     -34.07590000     -74.79990000
C      -43.56210000     -32.56070000     -70.38060000
H      -43.64090000     -33.11670000     -71.23540000
H      -43.21090000     -31.56680000     -70.66610000
C      -44.95340000     -32.42450000     -69.65840000
H      -45.44830000     -33.38600000     -69.53460000
H      -44.74180000     -31.99660000     -68.63690000
C      -46.10860000     -34.12630000     -72.70230000
H      -45.72110000     -34.33700000     -71.67620000
H      -46.74220000     -35.05880000     -72.78520000
C      -46.78800000     -32.77560000     -72.67640000
C      -47.43140000     -32.30090000     -73.79150000
C      -46.59560000     -31.73580000     -71.65980000
H      -47.84270000     -32.90720000     -74.49470000
C      -47.32640000     -30.57750000     -71.96040000
C      -45.86810000     -31.47230000     -70.36440000
C      -46.10340000     -30.25080000     -69.76540000
S      -48.24730000     -30.69220000     -73.45390000
S      -47.14130000     -29.34650000     -70.83590000
H      -45.67560000     -29.93800000     -68.86860000
