40
Properties=species:S:1:pos:R:3 #=T CELL(abcABC):=T 1.889726e+02=T 90.00000=T Traj:=T positionsangstrom=T Step:=T 0=T Bead:=T pbc="F F F"
C      -45.38320000     -29.53880000     -69.69060000
C      -44.53400000     -30.03590000     -70.71980000
C      -43.65060000     -31.07430000     -70.35180000
C      -43.46090000     -31.47530000     -69.03060000
C      -44.18990000     -30.83880000     -67.98060000
C      -45.22090000     -29.99210000     -68.33360000
H      -46.04870000     -28.74600000     -69.98120000
H      -43.13560000     -31.62860000     -71.10760000
H      -44.00850000     -31.06200000     -66.91820000
H      -45.75930000     -29.58810000     -67.51850000
C      -42.54290000     -32.57980000     -68.69810000
H      -42.24480000     -32.51380000     -67.65540000
H      -41.64600000     -32.47300000     -69.24950000
C      -44.58430000     -29.56270000     -72.15280000
H      -44.56520000     -28.50210000     -72.14950000
H      -43.68360000     -29.92500000     -72.73680000
S      -42.99650000     -34.36510000     -69.04860000
S      -46.06870000     -29.96050000     -73.21900000
C      -44.71670000     -34.68310000     -68.57770000
H      -44.78100000     -35.72980000     -68.36500000
H      -45.11920000     -34.13920000     -67.72860000
C      -46.08660000     -31.78730000     -73.35600000
H      -45.06530000     -32.08230000     -73.13280000
H      -46.30950000     -32.09350000     -74.38390000
C      -47.03380000     -32.53930000     -72.42240000
H      -46.75740000     -32.44930000     -71.31890000
H      -48.02620000     -32.09840000     -72.53660000
C      -45.65730000     -34.38640000     -69.71820000
H      -45.36440000     -33.39830000     -70.03360000
H      -46.66000000     -34.23420000     -69.35200000
C      -45.67100000     -35.36190000     -70.88510000
C      -45.14560000     -36.62730000     -70.78220000
C      -46.32520000     -35.14600000     -72.11000000
H      -44.54310000     -36.86160000     -69.95300000
C      -46.21390000     -36.28680000     -72.97630000
C      -46.99250000     -34.04330000     -72.81370000
C      -47.42730000     -34.40940000     -74.05390000
S      -45.44120000     -37.63890000     -72.16340000
S      -47.11150000     -36.11410000     -74.48720000
H      -47.67290000     -33.66920000     -74.84930000
