40
Properties=species:S:1:pos:R:3 #=T CELL(abcABC):=T 1.889726e+02=T 90.00000=T Traj:=T positionsangstrom=T Step:=T 0=T Bead:=T pbc="F F F"
C      -44.43160000     -31.23640000     -68.31190000
C      -45.28050000     -30.68050000     -69.22150000
C      -46.53880000     -31.23770000     -69.31520000
C      -46.86250000     -32.45390000     -68.71690000
C      -45.84610000     -33.14740000     -67.98540000
C      -44.70100000     -32.48360000     -67.74750000
H      -43.38690000     -30.87530000     -68.27470000
H      -47.31820000     -30.91630000     -70.00950000
H      -45.96810000     -34.17410000     -67.62270000
H      -43.84960000     -32.94170000     -67.25350000
C      -48.30660000     -32.96680000     -68.82830000
H      -49.13190000     -32.29550000     -69.07890000
H      -48.61510000     -33.45700000     -67.96820000
C      -44.94230000     -29.47730000     -70.03690000
H      -45.82850000     -29.18110000     -70.62460000
H      -44.71850000     -28.67250000     -69.45980000
S      -48.42380000     -34.31900000     -70.13950000
S      -43.58810000     -29.82950000     -71.24320000
C      -48.23790000     -33.55470000     -71.82420000
H      -48.72010000     -34.24500000     -72.53130000
H      -48.86740000     -32.61550000     -71.75200000
C      -44.01550000     -31.42740000     -72.10950000
H      -43.35280000     -31.47450000     -73.00040000
H      -45.05040000     -31.36340000     -72.51110000
C      -43.85460000     -32.72480000     -71.22760000
H      -42.98230000     -32.59380000     -70.58810000
H      -44.81960000     -32.91230000     -70.67520000
C      -46.73560000     -33.27560000     -72.20520000
H      -46.17150000     -32.79240000     -71.32670000
H      -46.76780000     -32.42030000     -73.01300000
C      -46.11420000     -34.47810000     -72.84300000
C      -46.65510000     -35.25930000     -73.80340000
C      -44.72720000     -34.72690000     -72.67240000
H      -47.67170000     -35.30100000     -74.08440000
C      -44.27190000     -35.76140000     -73.41950000
C      -43.60630000     -33.99230000     -72.06230000
C      -42.43040000     -34.64730000     -72.20990000
S      -45.59160000     -36.51130000     -74.31950000
S      -42.58080000     -36.18680000     -73.17070000
H      -41.35190000     -34.46540000     -71.97950000
