40
Properties=species:S:1:pos:R:3 #=T CELL(abcABC):=T 1.889726e+02=T 90.00000=T Traj:=T positionsangstrom=T Step:=T 0=T Bead:=T pbc="F F F"
C      -45.52010000     -29.60180000     -69.54020000
C      -44.67450000     -30.06040000     -70.59520000
C      -43.81640000     -31.12830000     -70.35610000
C      -43.67400000     -31.62560000     -69.04500000
C      -44.48510000     -31.07380000     -67.99790000
C      -45.43850000     -30.14480000     -68.22340000
H      -46.21300000     -28.82990000     -69.81580000
H      -43.19900000     -31.40840000     -71.26600000
H      -44.37090000     -31.55700000     -66.97440000
H      -46.03090000     -29.87800000     -67.42300000
C      -42.59010000     -32.55980000     -68.66820000
H      -42.41680000     -32.69470000     -67.57480000
H      -41.59140000     -32.22100000     -69.07480000
C      -44.69740000     -29.38560000     -72.00800000
H      -44.75710000     -28.30280000     -72.03400000
H      -43.71700000     -29.54100000     -72.48370000
S      -42.85790000     -34.30300000     -69.34710000
S      -46.08290000     -29.92100000     -73.17510000
C      -44.62700000     -34.41130000     -68.68650000
H      -44.64580000     -35.28660000     -68.01140000
H      -44.67220000     -33.54240000     -68.01410000
C      -45.83610000     -31.72700000     -73.40790000
H      -44.77200000     -31.93530000     -73.35490000
H      -46.16880000     -32.04110000     -74.45760000
C      -46.75680000     -32.52360000     -72.44990000
H      -46.36700000     -32.46780000     -71.46860000
H      -47.73660000     -32.04560000     -72.46650000
C      -45.74540000     -34.33620000     -69.65550000
H      -45.73850000     -33.42970000     -70.16800000
H      -46.68960000     -34.47220000     -69.06590000
C      -45.71910000     -35.37660000     -70.81550000
C      -45.16820000     -36.64820000     -70.69090000
C      -46.29150000     -35.12860000     -72.13680000
H      -44.66460000     -36.97450000     -69.78040000
C      -46.18370000     -36.28410000     -72.92900000
C      -46.86430000     -34.03890000     -72.89700000
C      -47.24410000     -34.42790000     -74.16780000
S      -45.43820000     -37.64340000     -72.13150000
S      -47.04900000     -36.19230000     -74.42700000
H      -47.77450000     -33.80960000     -74.92040000
