40
Properties=species:S:1:pos:R:3 #=T CELL(abcABC):=T 1.889726e+02=T 90.00000=T Traj:=T positionsangstrom=T Step:=T 0=T Bead:=T pbc="F F F"
C      -44.17690000     -31.60770000     -68.08490000
C      -45.01760000     -30.99440000     -69.10870000
C      -46.31270000     -31.48620000     -69.37140000
C      -46.77750000     -32.53470000     -68.61300000
C      -45.94600000     -33.19500000     -67.64540000
C      -44.65790000     -32.74360000     -67.40400000
H      -43.20320000     -31.15410000     -67.74290000
H      -46.94280000     -30.92620000     -70.11500000
H      -46.41200000     -33.95700000     -66.96970000
H      -44.01810000     -33.14400000     -66.61580000
C      -48.16310000     -33.05840000     -68.85830000
H      -48.80340000     -32.19980000     -69.09410000
H      -48.50690000     -33.44560000     -67.96010000
C      -44.64250000     -29.66780000     -69.76940000
H      -45.58660000     -29.15270000     -69.96820000
H      -44.14380000     -29.01030000     -69.13880000
S      -48.13800000     -34.39630000     -70.18090000
S      -43.51030000     -29.79610000     -71.23550000
C      -48.30900000     -33.45590000     -71.76250000
H      -48.82830000     -34.11960000     -72.40460000
H      -49.03880000     -32.56090000     -71.53150000
C      -43.95010000     -31.38210000     -72.15420000
H      -43.40950000     -31.24720000     -73.14520000
H      -44.99180000     -31.54050000     -72.37580000
C      -43.50480000     -32.64900000     -71.45270000
H      -42.49090000     -32.49130000     -71.15660000
H      -44.18940000     -32.70160000     -70.63560000
C      -46.93560000     -32.99470000     -72.33410000
H      -46.30560000     -32.64100000     -71.50050000
H      -47.04890000     -32.18130000     -73.06760000
C      -46.26530000     -34.20210000     -72.97100000
C      -46.94750000     -35.25150000     -73.56870000
C      -44.85760000     -34.44200000     -72.94840000
H      -47.99670000     -35.29820000     -73.82550000
C      -44.54490000     -35.69380000     -73.54280000
C      -43.59530000     -33.82360000     -72.37050000
C      -42.53060000     -34.60310000     -72.44600000
S      -45.95840000     -36.53700000     -74.15960000
S      -42.77030000     -36.04070000     -73.42350000
H      -41.56760000     -34.32890000     -72.07990000
