40
Properties=species:S:1:pos:R:3 #=T CELL(abcABC):=T 1.889726e+02=T 90.00000=T Traj:=T positionsangstrom=T Step:=T 0=T Bead:=T pbc="F F F"
C      -46.98850000     -35.77140000     -68.93960000
C      -45.85740000     -35.02150000     -68.54420000
C      -46.00160000     -33.59980000     -68.48490000
C      -47.18570000     -32.96060000     -68.85630000
C      -48.30700000     -33.77760000     -68.97920000
C      -48.21280000     -35.09060000     -69.09530000
H      -46.82070000     -36.85010000     -68.97460000
H      -45.13650000     -33.00470000     -68.05310000
H      -49.23150000     -33.31620000     -69.12710000
H      -49.04090000     -35.82410000     -69.24710000
C      -47.41080000     -31.47050000     -68.91030000
H      -46.51290000     -30.90140000     -68.38800000
H      -48.38130000     -31.08590000     -68.45220000
C      -44.71120000     -35.85420000     -68.05000000
H      -44.02380000     -35.13100000     -67.59100000
H      -45.07980000     -36.54560000     -67.25550000
S      -47.33360000     -30.84460000     -70.60350000
S      -43.89310000     -36.84310000     -69.29930000
C      -47.99140000     -32.10600000     -71.79080000
H      -48.77450000     -32.57310000     -71.29470000
H      -48.36400000     -31.66420000     -72.70650000
C      -43.25940000     -35.49310000     -70.47650000
H      -42.46730000     -36.01770000     -71.07420000
H      -42.87170000     -34.81730000     -69.67470000
C      -44.25640000     -34.78430000     -71.35270000
H      -44.76070000     -35.53170000     -71.92900000
H      -45.01410000     -34.32500000     -70.67650000
C      -46.96990000     -33.15400000     -72.33930000
H      -47.43480000     -33.94750000     -72.94290000
H      -46.58740000     -33.72580000     -71.53390000
C      -45.85360000     -32.51740000     -73.18890000
C      -46.16350000     -31.74710000     -74.29200000
C      -44.45880000     -32.82470000     -73.06810000
H      -47.10670000     -31.47100000     -74.78230000
C      -43.67670000     -32.16240000     -74.02910000
C      -43.67560000     -33.68220000     -72.21200000
C      -42.36490000     -33.59380000     -72.46840000
S      -44.67820000     -31.35710000     -75.18410000
S      -41.96180000     -32.39190000     -73.78100000
H      -41.73430000     -34.12870000     -71.80830000
