40
Properties=species:S:1:pos:R:3 #=T CELL(abcABC):=T 1.889726e+02=T 90.00000=T Traj:=T positionsangstrom=T Step:=T 0=T Bead:=T pbc="F F F"
C      -44.78730000     -31.78960000     -74.91020000
C      -45.60460000     -31.26190000     -73.91420000
C      -46.79120000     -31.92440000     -73.59690000
C      -47.07770000     -33.17090000     -74.22140000
C      -46.22620000     -33.72920000     -75.18790000
C      -45.07960000     -32.98930000     -75.56060000
H      -43.95820000     -31.08540000     -75.32430000
H      -47.52050000     -31.44500000     -72.95100000
H      -46.49460000     -34.53990000     -75.75840000
H      -44.32070000     -33.34840000     -76.27930000
C      -48.44860000     -33.77450000     -74.02750000
H      -48.45140000     -34.72960000     -74.48270000
H      -49.30080000     -33.15530000     -74.29160000
C      -45.28880000     -29.96210000     -73.22920000
H      -44.16150000     -29.90280000     -73.23290000
H      -45.57920000     -29.08000000     -73.83170000
S      -48.69160000     -34.21100000     -72.18650000
S      -45.96760000     -29.67320000     -71.49200000
C      -46.90520000     -34.76170000     -71.67530000
H      -46.68620000     -35.56020000     -72.33400000
H      -46.11840000     -34.01330000     -71.90390000
C      -44.74430000     -30.52620000     -70.34660000
H      -44.86220000     -30.06240000     -69.36780000
H      -43.76390000     -30.48520000     -70.76630000
C      -45.11870000     -32.04600000     -70.41290000
H      -46.04640000     -32.24640000     -69.86250000
H      -45.15700000     -32.37080000     -71.46840000
C      -46.79250000     -35.15640000     -70.23600000
H      -47.43550000     -35.90140000     -69.86050000
H      -47.10500000     -34.21410000     -69.75350000
C      -45.40820000     -35.40990000     -69.73080000
C      -45.03980000     -36.69470000     -69.32350000
C      -44.36430000     -34.47260000     -69.42640000
H      -45.69210000     -37.54880000     -69.47110000
C      -43.25960000     -35.05270000     -68.81190000
C      -44.12380000     -33.04910000     -69.69420000
C      -42.82460000     -32.74800000     -69.27580000
S      -43.50870000     -36.80280000     -68.56560000
S      -41.87870000     -34.01610000     -68.59840000
H      -42.40200000     -31.76500000     -69.39320000
