40
Properties=species:S:1:pos:R:3 #=T CELL(abcABC):=T 1.889726e+02=T 90.00000=T Traj:=T positionsangstrom=T Step:=T 0=T Bead:=T pbc="F F F"
C      -43.62260000     -31.65550000     -68.50230000
C      -44.66730000     -31.04830000     -69.21880000
C      -46.01420000     -31.42890000     -69.00520000
C      -46.24820000     -32.52730000     -68.20450000
C      -45.25430000     -33.22560000     -67.58760000
C      -43.94400000     -32.84480000     -67.74090000
H      -42.55310000     -31.43890000     -68.61850000
H      -46.80230000     -30.90140000     -69.41160000
H      -45.52230000     -34.20080000     -67.14310000
H      -43.16660000     -33.49640000     -67.36260000
C      -47.63960000     -33.03010000     -68.12200000
H      -48.36800000     -32.17750000     -68.09970000
H      -47.73310000     -33.49860000     -67.12020000
C      -44.35360000     -29.91520000     -70.16120000
H      -45.22960000     -29.49840000     -70.75630000
H      -43.89630000     -29.05530000     -69.64990000
S      -48.06240000     -34.12390000     -69.53450000
S      -42.85270000     -30.41000000     -71.07980000
C      -48.12630000     -32.91570000     -70.95960000
H      -48.90140000     -33.19470000     -71.60030000
H      -48.53030000     -31.93930000     -70.59920000
C      -43.31150000     -31.85510000     -72.18710000
H      -42.46910000     -32.01910000     -72.99640000
H      -44.19220000     -31.58520000     -72.73140000
C      -43.46640000     -33.18340000     -71.50140000
H      -42.58810000     -33.50440000     -70.93300000
H      -44.20490000     -33.10040000     -70.66720000
C      -46.78440000     -32.80760000     -71.68230000
H      -46.05700000     -32.91350000     -70.89540000
H      -46.60180000     -31.81960000     -71.98760000
C      -46.53550000     -33.86530000     -72.74210000
C      -47.48540000     -34.55660000     -73.48770000
C      -45.17420000     -34.43390000     -73.00150000
H      -48.58310000     -34.41340000     -73.53940000
C      -45.21880000     -35.40310000     -73.99900000
C      -43.85210000     -34.25020000     -72.50620000
C      -42.95710000     -35.15240000     -73.02590000
S      -46.83470000     -35.84170000     -74.49990000
S      -43.75180000     -36.21560000     -74.24670000
H      -41.85170000     -35.30680000     -72.90470000
