40
Properties=species:S:1:pos:R:3 #=T CELL(abcABC):=T 1.889726e+02=T 90.00000=T Traj:=T positionsangstrom=T Step:=T 0=T Bead:=T pbc="F F F"
C      -44.02550000     -32.03570000     -74.82610000
C      -44.99520000     -31.48880000     -73.97150000
C      -46.22630000     -32.21670000     -73.93880000
C      -46.37520000     -33.40690000     -74.58990000
C      -45.30930000     -34.01250000     -75.31400000
C      -44.10320000     -33.31700000     -75.39870000
H      -43.07810000     -31.52890000     -74.91730000
H      -46.95730000     -31.69900000     -73.33610000
H      -45.46620000     -35.01210000     -75.67680000
H      -43.46760000     -33.57050000     -76.18400000
C      -47.69580000     -34.13150000     -74.52860000
H      -47.62230000     -35.10400000     -75.03650000
H      -48.44780000     -33.52310000     -75.02750000
C      -44.76840000     -30.11460000     -73.30210000
H      -43.75790000     -29.99760000     -73.09400000
H      -44.95510000     -29.43500000     -74.15890000
S      -48.33150000     -34.19170000     -72.79910000
S      -45.89570000     -29.78140000     -71.88600000
C      -46.90780000     -35.06620000     -71.95610000
H      -46.99130000     -36.14110000     -72.21540000
H      -46.02180000     -34.55250000     -72.32790000
C      -45.30730000     -30.79010000     -70.46140000
H      -46.20800000     -30.70830000     -69.77780000
H      -44.40660000     -30.34620000     -70.00160000
C      -45.04540000     -32.24260000     -70.88580000
H      -45.98660000     -32.72710000     -71.17990000
H      -44.38550000     -32.24340000     -71.79490000
C      -47.06290000     -34.93650000     -70.39640000
H      -47.95480000     -35.57600000     -70.17680000
H      -47.44350000     -33.90080000     -70.16170000
C      -45.85490000     -35.28280000     -69.51390000
C      -45.70760000     -36.37660000     -68.77820000
C      -44.78370000     -34.30220000     -69.24580000
H      -46.23330000     -37.30320000     -68.71550000
C      -43.80310000     -34.78910000     -68.37310000
C      -44.43850000     -33.00180000     -69.74600000
C      -43.22050000     -32.59490000     -69.17560000
S      -44.19760000     -36.38300000     -67.82670000
S      -42.55530000     -33.64030000     -67.92870000
H      -42.83910000     -31.65170000     -69.56100000
