40
Properties=species:S:1:pos:R:3 #=T CELL(abcABC):=T 1.889726e+02=T 90.00000=T Traj:=T positionsangstrom=T Step:=T 0=T Bead:=T pbc="F F F"
C      -44.26350000     -31.39140000     -74.03630000
C      -45.68850000     -31.24830000     -73.78050000
C      -46.49530000     -32.30620000     -74.04880000
C      -45.98040000     -33.61850000     -74.29240000
C      -44.63030000     -33.77950000     -74.41120000
C      -43.80750000     -32.67320000     -74.20870000
H      -43.50590000     -30.62490000     -73.90030000
H      -47.62950000     -32.21590000     -74.03350000
H      -44.18480000     -34.70670000     -74.59420000
H      -42.80530000     -32.84480000     -74.53180000
C      -46.94820000     -34.71160000     -74.53050000
H      -46.41500000     -35.58020000     -74.98450000
H      -47.62650000     -34.36290000     -75.31320000
C      -46.30250000     -29.90090000     -73.37930000
H      -45.98780000     -29.04760000     -73.96910000
H      -47.40490000     -29.97120000     -73.50170000
S      -48.01430000     -35.17030000     -73.07980000
S      -46.26100000     -29.40810000     -71.58560000
C      -46.84390000     -35.62210000     -71.77180000
H      -46.66050000     -36.71100000     -71.87370000
H      -45.86340000     -35.03360000     -71.97280000
C      -44.90630000     -30.46510000     -70.81160000
H      -44.64550000     -30.03070000     -69.87930000
H      -43.98790000     -30.38370000     -71.43810000
C      -45.47650000     -31.92990000     -70.63200000
H      -46.32640000     -31.95840000     -69.97820000
H      -45.75270000     -32.44820000     -71.53270000
C      -47.20590000     -35.03510000     -70.34530000
H      -48.08200000     -35.45840000     -69.89750000
H      -47.48470000     -33.93690000     -70.50720000
C      -45.93270000     -35.15900000     -69.47980000
C      -45.67370000     -36.29570000     -68.72640000
C      -44.83610000     -34.18440000     -69.44260000
H      -46.40680000     -37.05760000     -68.41680000
C      -43.77480000     -34.75620000     -68.70170000
C      -44.46020000     -32.79950000     -69.88610000
C      -43.15570000     -32.48610000     -69.63790000
S      -44.02050000     -36.34050000     -67.97100000
S      -42.36670000     -33.76480000     -68.75360000
H      -42.60230000     -31.56520000     -69.96950000
