40
Properties=species:S:1:pos:R:3 #=T CELL(abcABC):=T 1.889726e+02=T 90.00000=T Traj:=T positionsangstrom=T Step:=T 0=T Bead:=T pbc="F F F"
C      -44.40090000     -31.39970000     -74.04510000
C      -45.76480000     -31.13710000     -73.95450000
C      -46.61310000     -32.26210000     -73.87170000
C      -46.09680000     -33.55140000     -74.20250000
C      -44.70320000     -33.70800000     -74.40830000
C      -43.85860000     -32.68460000     -74.18820000
H      -43.57120000     -30.63020000     -73.90340000
H      -47.66000000     -32.22200000     -73.62910000
H      -44.28500000     -34.71380000     -74.59620000
H      -42.75910000     -32.79330000     -74.24750000
C      -46.92610000     -34.76630000     -74.45320000
H      -46.28770000     -35.61940000     -74.54510000
H      -47.53400000     -34.53770000     -75.31610000
C      -46.24910000     -29.76660000     -73.64830000
H      -45.65110000     -29.05980000     -74.22340000
H      -47.31860000     -29.66330000     -73.93440000
S      -48.02620000     -35.19260000     -73.05480000
S      -46.11100000     -29.49580000     -71.88950000
C      -46.61920000     -35.34790000     -71.82700000
H      -46.21220000     -36.37380000     -71.80500000
H      -45.87630000     -34.79770000     -72.28520000
C      -44.99110000     -30.67490000     -70.96970000
H      -44.47440000     -30.06120000     -70.16180000
H      -44.22490000     -30.96490000     -71.63750000
C      -45.51280000     -32.05960000     -70.42020000
H      -46.33660000     -31.92180000     -69.68770000
H      -45.97310000     -32.60810000     -71.31890000
C      -47.10210000     -35.07320000     -70.41530000
H      -47.78770000     -35.85140000     -70.15320000
H      -47.63130000     -34.13510000     -70.40750000
C      -45.88060000     -35.14860000     -69.49100000
C      -45.69110000     -36.29370000     -68.74790000
C      -44.76370000     -34.23630000     -69.44690000
H      -46.31800000     -37.15360000     -68.66050000
C      -43.71850000     -34.81400000     -68.71720000
C      -44.45230000     -32.85100000     -69.75150000
C      -43.18420000     -32.48760000     -69.43680000
S      -44.11080000     -36.32550000     -67.94380000
S      -42.38180000     -33.68640000     -68.55420000
H      -42.76680000     -31.49180000     -69.63760000
