40
Properties=species:S:1:pos:R:3 #=T CELL(abcABC):=T 1.889726e+02=T 90.00000=T Traj:=T positionsangstrom=T Step:=T 0=T Bead:=T pbc="F F F"
C      -43.87520000     -32.12430000     -74.68570000
C      -44.88480000     -31.50360000     -73.92510000
C      -46.10320000     -32.12550000     -73.89920000
C      -46.39730000     -33.31240000     -74.61500000
C      -45.40880000     -33.81650000     -75.45370000
C      -44.12190000     -33.23440000     -75.46980000
H      -42.87410000     -31.75970000     -74.49940000
H      -46.91300000     -31.72380000     -73.35340000
H      -45.57630000     -34.68070000     -76.08910000
H      -43.23930000     -33.71250000     -75.81950000
C      -47.70670000     -34.09280000     -74.45310000
H      -47.65280000     -35.09200000     -74.94810000
H      -48.58620000     -33.68620000     -74.94130000
C      -44.69640000     -30.16990000     -73.27950000
H      -43.69480000     -29.99990000     -72.86490000
H      -44.85030000     -29.32390000     -74.09360000
S      -48.38230000     -34.26620000     -72.72850000
S      -45.86640000     -29.80590000     -71.91940000
C      -46.83430000     -34.95060000     -71.93660000
H      -46.62790000     -35.95270000     -72.39560000
H      -45.95210000     -34.36580000     -72.13890000
C      -45.06100000     -30.76500000     -70.62260000
H      -45.51270000     -30.47100000     -69.66210000
H      -44.06870000     -30.36120000     -70.52190000
C      -45.05280000     -32.26970000     -70.85220000
H      -46.06210000     -32.60730000     -70.93430000
H      -44.54720000     -32.42080000     -71.80500000
C      -47.11420000     -35.05050000     -70.44330000
H      -47.71780000     -35.87520000     -70.15080000
H      -47.52460000     -34.05630000     -70.13430000
C      -45.81280000     -35.26880000     -69.59310000
C      -45.67190000     -36.42520000     -68.96490000
C      -44.77820000     -34.31370000     -69.30010000
H      -46.42610000     -37.21190000     -68.84090000
C      -43.87140000     -34.79870000     -68.35680000
C      -44.40360000     -33.03120000     -69.75610000
C      -43.18200000     -32.63370000     -69.17440000
S      -44.36430000     -36.34190000     -67.77600000
S      -42.66900000     -33.66040000     -67.88860000
H      -42.58670000     -31.86130000     -69.70680000
