40
Properties=species:S:1:pos:R:3 #=T CELL(abcABC):=T 1.889726e+02=T 90.00000=T Traj:=T positionsangstrom=T Step:=T 0=T Bead:=T pbc="F F F"
C      -44.31300000     -31.66660000     -74.18760000
C      -45.64580000     -31.21250000     -74.02190000
C      -46.63120000     -32.21450000     -74.09190000
C      -46.27980000     -33.52440000     -74.52270000
C      -44.97100000     -33.88700000     -74.90770000
C      -43.94480000     -32.88100000     -74.67540000
H      -43.58930000     -30.91490000     -74.07500000
H      -47.66240000     -32.06780000     -73.85340000
H      -44.65850000     -34.82900000     -75.37910000
H      -42.93250000     -32.94620000     -75.10410000
C      -47.34360000     -34.63620000     -74.56360000
H      -46.91890000     -35.53020000     -75.04080000
H      -48.13390000     -34.39130000     -75.29680000
C      -45.93250000     -29.81610000     -73.69260000
H      -45.08620000     -29.12050000     -73.93650000
H      -46.87510000     -29.51110000     -74.14140000
S      -48.12020000     -34.73140000     -72.93450000
S      -46.15240000     -29.65270000     -71.76480000
C      -46.71220000     -35.33800000     -71.91260000
H      -46.39870000     -36.31190000     -72.17560000
H      -45.79710000     -34.73940000     -72.21090000
C      -44.92350000     -30.68970000     -70.82720000
H      -44.80190000     -30.28410000     -69.80580000
H      -43.93850000     -30.52030000     -71.33550000
C      -45.28550000     -32.12810000     -70.63580000
H      -46.39030000     -32.17430000     -70.24920000
H      -45.28930000     -32.64330000     -71.60070000
C      -46.96080000     -35.11090000     -70.46500000
H      -47.74090000     -35.79740000     -70.11450000
H      -47.55060000     -34.21560000     -70.30980000
C      -45.80880000     -35.20120000     -69.47760000
C      -45.58170000     -36.30970000     -68.71880000
C      -44.69080000     -34.24620000     -69.31450000
H      -46.31800000     -37.10400000     -68.70790000
C      -43.65570000     -34.78170000     -68.58080000
C      -44.37560000     -32.89490000     -69.76820000
C      -43.15800000     -32.48100000     -69.21680000
S      -44.09720000     -36.36970000     -67.86000000
S      -42.37780000     -33.65980000     -68.20840000
H      -42.58310000     -31.60400000     -69.38140000
