40
Properties=species:S:1:pos:R:3 #=T CELL(abcABC):=T 1.889726e+02=T 90.00000=T Traj:=T positionsangstrom=T Step:=T 0=T Bead:=T pbc="F F F"
C      -44.68220000     -35.77970000     -68.40230000
C      -43.60070000     -35.45890000     -69.19350000
C      -43.62900000     -35.82220000     -70.57120000
C      -44.67970000     -36.52500000     -71.12040000
C      -45.71290000     -36.96700000     -70.25520000
C      -45.73940000     -36.55950000     -68.94950000
H      -44.71540000     -35.54610000     -67.31110000
H      -42.70240000     -35.61700000     -71.14080000
H      -46.57210000     -37.51310000     -70.58540000
H      -46.57690000     -36.84200000     -68.30100000
C      -44.64210000     -36.92640000     -72.56860000
H      -45.65520000     -37.10150000     -72.95520000
H      -44.10320000     -37.86550000     -72.66880000
C      -42.42940000     -34.63340000     -68.66550000
H      -42.67580000     -34.42790000     -67.62570000
H      -41.47410000     -35.15240000     -68.77690000
S      -43.71460000     -35.81400000     -73.71470000
S      -42.23990000     -33.07700000     -69.62240000
C      -44.71940000     -34.14580000     -73.89910000
H      -44.06840000     -33.27650000     -73.63460000
H      -45.05200000     -33.95480000     -74.93470000
C      -43.75770000     -32.76960000     -70.59130000
H      -43.85140000     -33.52370000     -71.30010000
H      -43.42460000     -31.83530000     -71.12780000
C      -45.03530000     -32.59440000     -69.83170000
H      -45.49530000     -33.54410000     -69.78700000
H      -44.88940000     -32.26790000     -68.75370000
C      -45.91430000     -33.97230000     -72.90910000
H      -45.60340000     -34.10470000     -71.89090000
H      -46.55250000     -34.75730000     -73.10480000
C      -46.64750000     -32.68010000     -72.90570000
C      -47.43200000     -32.13740000     -73.87370000
C      -46.61060000     -31.75330000     -71.78810000
H      -47.59680000     -32.57560000     -74.80880000
C      -47.38540000     -30.63480000     -71.98630000
C      -45.92190000     -31.54180000     -70.50690000
C      -46.31900000     -30.48720000     -69.76980000
S      -48.26350000     -30.63500000     -73.51910000
S      -47.52240000     -29.45430000     -70.62190000
H      -46.23070000     -30.26070000     -68.71830000
