40
Properties=species:S:1:pos:R:3 #=T CELL(abcABC):=T 1.889726e+02=T 90.00000=T Traj:=T positionsangstrom=T Step:=T 0=T Bead:=T pbc="F F F"
C      -44.09160000     -31.76460000     -74.48720000
C      -45.32210000     -31.28710000     -74.03720000
C      -46.42800000     -32.21620000     -74.00960000
C      -46.31760000     -33.54320000     -74.44160000
C      -45.03350000     -34.01080000     -74.97870000
C      -43.97310000     -33.14900000     -74.89190000
H      -43.15350000     -31.17790000     -74.35170000
H      -47.39050000     -31.80530000     -73.72940000
H      -45.05330000     -35.11480000     -75.20980000
H      -43.03350000     -33.45470000     -75.35180000
C      -47.49410000     -34.46940000     -74.54370000
H      -47.13130000     -35.43700000     -74.86780000
H      -48.22500000     -34.02310000     -75.18950000
C      -45.57260000     -29.89520000     -73.40770000
H      -44.62460000     -29.36890000     -73.46980000
H      -46.25010000     -29.33490000     -74.11330000
S      -48.35950000     -34.63240000     -72.85910000
S      -46.27650000     -29.78040000     -71.70680000
C      -46.77110000     -35.05750000     -71.85690000
H      -46.64620000     -36.13270000     -72.06410000
H      -46.03920000     -34.36920000     -72.26510000
C      -44.91410000     -30.58720000     -70.80930000
H      -45.04250000     -30.19240000     -69.77050000
H      -43.99670000     -30.21460000     -71.19110000
C      -45.12160000     -32.09460000     -70.84600000
H      -46.18320000     -32.23020000     -70.77120000
H      -44.81250000     -32.46910000     -71.84950000
C      -46.98190000     -34.93150000     -70.40060000
H      -47.74870000     -35.63190000     -70.09680000
H      -47.27790000     -33.86600000     -70.25810000
C      -45.66710000     -35.28020000     -69.65580000
C      -45.50120000     -36.45560000     -68.93950000
C      -44.64670000     -34.28930000     -69.35390000
H      -46.35140000     -37.15400000     -68.79790000
C      -43.73220000     -34.73600000     -68.43140000
C      -44.35510000     -32.97980000     -69.86940000
C      -43.16460000     -32.44440000     -69.27470000
S      -44.12360000     -36.32130000     -67.82630000
S      -42.44820000     -33.64990000     -68.12540000
H      -42.47960000     -31.61870000     -69.53330000
