40
Properties=species:S:1:pos:R:3 #=T CELL(abcABC):=T 1.889726e+02=T 90.00000=T Traj:=T positionsangstrom=T Step:=T 0=T Bead:=T pbc="F F F"
C      -43.64040000     -32.28000000     -74.14100000
C      -44.80140000     -31.51110000     -73.94270000
C      -46.01920000     -32.11180000     -74.17310000
C      -46.17160000     -33.46220000     -74.54830000
C      -45.00300000     -34.16260000     -74.80660000
C      -43.74110000     -33.58480000     -74.58500000
H      -42.72680000     -31.75490000     -74.04290000
H      -46.88980000     -31.49790000     -73.97620000
H      -44.93640000     -35.15130000     -75.25360000
H      -42.83650000     -34.24830000     -74.66300000
C      -47.56620000     -34.07330000     -74.78810000
H      -47.50290000     -35.08720000     -75.12950000
H      -48.24300000     -33.45920000     -75.43560000
C      -44.65040000     -30.02180000     -73.66670000
H      -43.64470000     -29.64430000     -73.96100000
H      -45.52470000     -29.39360000     -73.96330000
S      -48.53940000     -34.16690000     -73.15020000
S      -44.83190000     -29.50610000     -71.85930000
C      -47.06580000     -34.39340000     -72.02110000
H      -46.48630000     -35.30090000     -72.23080000
H      -46.36560000     -33.54350000     -72.14530000
C      -44.04000000     -30.68740000     -70.69350000
H      -43.86490000     -30.21080000     -69.66390000
H      -43.06100000     -31.07740000     -71.01080000
C      -44.95720000     -31.91340000     -70.42130000
H      -45.94600000     -31.57810000     -69.99730000
H      -45.34760000     -32.29670000     -71.38430000
C      -47.50510000     -34.26670000     -70.55570000
H      -48.50760000     -34.84730000     -70.34450000
H      -47.82830000     -33.20490000     -70.37650000
C      -46.36470000     -34.80800000     -69.62190000
C      -46.59030000     -35.92160000     -68.89120000
C      -45.06350000     -34.25110000     -69.29510000
H      -47.50110000     -36.42830000     -68.84690000
C      -44.32950000     -35.07300000     -68.36730000
C      -44.32890000     -33.07520000     -69.65650000
C      -43.12390000     -33.05990000     -68.98590000
S      -45.11670000     -36.58280000     -68.05250000
S      -42.82690000     -34.40740000     -67.90110000
H      -42.32080000     -32.35740000     -69.08020000
