40
Properties=species:S:1:pos:R:3 #=T CELL(abcABC):=T 1.889726e+02=T 90.00000=T Traj:=T positionsangstrom=T Step:=T 0=T Bead:=T pbc="F F F"
C      -43.30810000     -32.46700000     -73.87440000
C      -44.25520000     -31.35380000     -73.90230000
C      -45.58080000     -31.69490000     -74.19300000
C      -45.98430000     -32.99970000     -74.40440000
C      -45.03600000     -34.04810000     -74.35930000
C      -43.71430000     -33.79550000     -74.05490000
H      -42.29700000     -32.21980000     -73.47420000
H      -46.26680000     -30.87300000     -74.40020000
H      -45.43810000     -35.05400000     -74.55830000
H      -42.92890000     -34.53690000     -74.03250000
C      -47.41410000     -33.32120000     -74.75450000
H      -47.34770000     -34.06780000     -75.60010000
H      -47.83340000     -32.41330000     -75.18540000
C      -43.95380000     -29.93240000     -73.50300000
H      -42.84890000     -29.58950000     -73.43400000
H      -44.49080000     -29.29300000     -74.22590000
S      -48.36250000     -33.88180000     -73.29150000
S      -44.96960000     -29.61700000     -71.91410000
C      -47.26680000     -34.87990000     -72.14040000
H      -47.42970000     -35.90700000     -72.49900000
H      -46.22020000     -34.72420000     -72.35050000
C      -44.22390000     -30.80680000     -70.74010000
H      -44.44730000     -30.32400000     -69.80590000
H      -43.09690000     -30.68530000     -70.80280000
C      -44.83530000     -32.18620000     -70.86490000
H      -45.93850000     -32.02920000     -70.81780000
H      -44.60430000     -32.55230000     -71.89420000
C      -47.57660000     -34.56090000     -70.70070000
H      -48.52650000     -35.06690000     -70.52930000
H      -47.53010000     -33.42250000     -70.66610000
C      -46.51150000     -34.99880000     -69.67330000
C      -46.80630000     -36.05790000     -68.87400000
C      -45.23540000     -34.37000000     -69.36010000
H      -47.58340000     -36.85390000     -68.93660000
C      -44.55840000     -35.12790000     -68.41720000
C      -44.44680000     -33.25300000     -69.88810000
C      -43.26280000     -33.24750000     -69.22120000
S      -45.45860000     -36.48650000     -67.77910000
S      -42.96490000     -34.48160000     -68.03620000
H      -42.50600000     -32.41860000     -69.25620000
