40
Properties=species:S:1:pos:R:3 #=T CELL(abcABC):=T 1.889726e+02=T 90.00000=T Traj:=T positionsangstrom=T Step:=T 0=T Bead:=T pbc="F F F"
C      -43.11790000     -32.32070000     -73.88880000
C      -44.06450000     -31.28110000     -73.96320000
C      -45.41120000     -31.65070000     -74.22780000
C      -45.75410000     -32.96910000     -74.41160000
C      -44.76840000     -33.97330000     -74.46720000
C      -43.46330000     -33.66240000     -74.22730000
H      -42.07600000     -32.06150000     -73.91280000
H      -46.26500000     -30.95580000     -74.09290000
H      -45.12700000     -34.89340000     -74.78690000
H      -42.71590000     -34.44510000     -74.11640000
C      -47.19650000     -33.35970000     -74.66140000
H      -47.27770000     -34.27630000     -75.19190000
H      -47.76430000     -32.60560000     -75.20190000
C      -43.67510000     -29.97560000     -73.37700000
H      -42.70670000     -29.95690000     -73.01000000
H      -43.84280000     -29.18670000     -74.08810000
S      -48.41490000     -33.74150000     -73.21130000
S      -44.79820000     -29.56670000     -71.88800000
C      -47.33440000     -34.82420000     -72.11350000
H      -47.69060000     -35.85260000     -72.32860000
H      -46.28520000     -34.70670000     -72.35400000
C      -44.41820000     -30.96530000     -70.69960000
H      -44.54980000     -30.54400000     -69.70270000
H      -43.40090000     -31.33890000     -70.74000000
C      -45.24750000     -32.26610000     -70.84070000
H      -46.28630000     -32.07960000     -70.58660000
H      -45.16770000     -32.64230000     -71.85200000
C      -47.65600000     -34.50590000     -70.69280000
H      -48.66810000     -34.76840000     -70.33740000
H      -47.64390000     -33.38350000     -70.61620000
C      -46.68510000     -35.06250000     -69.62280000
C      -46.92420000     -36.17590000     -68.81890000
C      -45.37460000     -34.43250000     -69.32180000
H      -47.89050000     -36.78020000     -68.71020000
C      -44.62800000     -35.22280000     -68.45590000
C      -44.66130000     -33.31000000     -69.89820000
C      -43.38950000     -33.23170000     -69.34450000
S      -45.57140000     -36.52090000     -67.75200000
S      -43.02900000     -34.57100000     -68.16790000
H      -42.52400000     -32.63060000     -69.62230000
