40
Properties=species:S:1:pos:R:3 #=T CELL(abcABC):=T 1.889726e+02=T 90.00000=T Traj:=T positionsangstrom=T Step:=T 0=T Bead:=T pbc="F F F"
C      -43.76230000     -31.90980000     -74.49080000
C      -44.98270000     -31.34210000     -74.15060000
C      -46.16460000     -32.12040000     -74.13610000
C      -46.23650000     -33.48220000     -74.60560000
C      -44.97510000     -33.97230000     -75.01180000
C      -43.80350000     -33.21760000     -74.98620000
H      -42.77540000     -31.38430000     -74.41380000
H      -47.15450000     -31.71680000     -73.75990000
H      -44.87690000     -35.08180000     -75.21260000
H      -42.91800000     -33.64610000     -75.43080000
C      -47.45140000     -34.37210000     -74.52080000
H      -47.07260000     -35.42060000     -74.76060000
H      -48.20620000     -34.12490000     -75.35330000
C      -45.06990000     -29.91310000     -73.76820000
H      -44.29120000     -29.29820000     -74.27790000
H      -45.95230000     -29.45980000     -74.25860000
S      -48.35620000     -34.24680000     -72.87330000
S      -44.99830000     -29.57390000     -71.98100000
C      -47.35100000     -35.21350000     -71.62130000
H      -47.70790000     -36.19530000     -71.44910000
H      -46.27640000     -35.07850000     -71.92150000
C      -44.19570000     -31.01720000     -71.22520000
H      -43.29360000     -30.57550000     -70.76480000
H      -43.87170000     -31.69600000     -72.03230000
C      -45.10730000     -31.77560000     -70.22270000
H      -45.52720000     -31.03430000     -69.53580000
H      -46.00290000     -32.07510000     -70.76160000
C      -47.47580000     -34.41450000     -70.30760000
H      -48.52660000     -34.45370000     -69.79680000
H      -47.35770000     -33.32790000     -70.57720000
C      -46.33550000     -34.85230000     -69.36480000
C      -46.38470000     -36.09710000     -68.82050000
C      -45.07540000     -34.15740000     -69.05890000
H      -47.20320000     -36.77620000     -69.02000000
C      -44.18310000     -34.94060000     -68.32110000
C      -44.40790000     -32.92790000     -69.47140000
C      -43.08220000     -32.89850000     -69.07450000
S      -44.84280000     -36.58730000     -68.10710000
S      -42.65420000     -34.19370000     -67.96890000
H      -42.36650000     -32.08540000     -69.25690000
