40
Properties=species:S:1:pos:R:3 #=T CELL(abcABC):=T 1.889726e+02=T 90.00000=T Traj:=T positionsangstrom=T Step:=T 0=T Bead:=T pbc="F F F"
C      -43.88220000     -31.93630000     -74.70280000
C      -45.05350000     -31.28140000     -74.20920000
C      -46.25630000     -32.00660000     -74.22930000
C      -46.42650000     -33.32420000     -74.65330000
C      -45.25610000     -33.84450000     -75.31070000
C      -44.00760000     -33.16500000     -75.32990000
H      -42.87080000     -31.60900000     -74.45380000
H      -47.15490000     -31.51790000     -73.94720000
H      -45.26760000     -34.84950000     -75.80050000
H      -43.16040000     -33.62800000     -75.86760000
C      -47.63090000     -34.21400000     -74.39990000
H      -47.36940000     -35.25860000     -74.61640000
H      -48.43150000     -33.85990000     -75.03160000
C      -45.00590000     -29.90380000     -73.66570000
H      -44.04140000     -29.48600000     -73.95540000
H      -45.66080000     -29.28830000     -74.16720000
S      -48.20900000     -34.19850000     -72.66810000
S      -45.58670000     -29.74820000     -71.95500000
C      -46.79300000     -34.94370000     -71.78120000
H      -46.66590000     -35.92900000     -72.10490000
H      -45.84390000     -34.33950000     -71.90610000
C      -44.55450000     -30.89920000     -70.81490000
H      -44.23110000     -30.27000000     -69.97250000
H      -43.65190000     -31.03210000     -71.45050000
C      -45.31050000     -32.12060000     -70.40540000
H      -46.25010000     -31.83360000     -69.99050000
H      -45.58020000     -32.63520000     -71.28510000
C      -47.17640000     -34.82730000     -70.27290000
H      -48.13460000     -35.40990000     -70.02490000
H      -47.47980000     -33.78350000     -70.05950000
C      -46.06010000     -35.18080000     -69.38720000
C      -45.97740000     -36.36940000     -68.72420000
C      -44.93900000     -34.30470000     -69.12230000
H      -46.70950000     -37.24330000     -68.78860000
C      -44.04890000     -34.91430000     -68.23260000
C      -44.51460000     -33.00050000     -69.58870000
C      -43.19620000     -32.71720000     -69.12620000
S      -44.46190000     -36.55860000     -67.87210000
S      -42.58420000     -33.96290000     -68.13590000
H      -42.65050000     -31.78090000     -69.17090000
