40
Properties=species:S:1:pos:R:3 #=T CELL(abcABC):=T 1.889726e+02=T 90.00000=T Traj:=T positionsangstrom=T Step:=T 0=T Bead:=T pbc="F F F"
C      -43.90030000     -31.83450000     -74.84450000
C      -45.02690000     -31.29900000     -74.20270000
C      -46.18900000     -32.10160000     -74.00480000
C      -46.22110000     -33.41400000     -74.42440000
C      -45.09180000     -33.94570000     -74.92050000
C      -43.95560000     -33.13400000     -75.17890000
H      -43.10620000     -31.21860000     -75.21340000
H      -47.02630000     -31.75360000     -73.50610000
H      -45.06490000     -34.96160000     -75.17870000
H      -43.15850000     -33.62720000     -75.68620000
C      -47.50930000     -34.20000000     -74.47790000
H      -47.49590000     -35.19170000     -74.95220000
H      -48.26330000     -33.68580000     -75.08700000
C      -45.04330000     -29.82200000     -73.79150000
H      -44.09360000     -29.26620000     -74.02280000
H      -45.91590000     -29.24820000     -74.27270000
S      -48.30420000     -34.18660000     -72.81890000
S      -45.40990000     -29.65290000     -71.95440000
C      -47.10790000     -34.98130000     -71.61380000
H      -47.05700000     -36.12480000     -71.73880000
H      -46.14490000     -34.56620000     -71.84850000
C      -44.39790000     -31.07570000     -71.31050000
H      -43.55040000     -30.54010000     -70.89390000
H      -43.97910000     -31.57520000     -72.20000000
C      -45.22180000     -32.02620000     -70.42470000
H      -45.70980000     -31.36630000     -69.61060000
H      -45.94710000     -32.58040000     -71.05690000
C      -47.45230000     -34.73150000     -70.13950000
H      -48.24680000     -35.30630000     -69.81480000
H      -47.60550000     -33.64970000     -70.00500000
C      -46.15910000     -35.11530000     -69.37730000
C      -46.09520000     -36.31080000     -68.73100000
C      -44.91870000     -34.33220000     -69.24950000
H      -46.86750000     -37.08720000     -68.55880000
C      -44.04710000     -34.97940000     -68.38080000
C      -44.46140000     -33.00880000     -69.58000000
C      -43.21950000     -32.68610000     -68.99870000
S      -44.50810000     -36.56050000     -67.91680000
S      -42.62180000     -34.05920000     -68.05130000
H      -42.69830000     -31.76400000     -69.07300000
