40
Properties=species:S:1:pos:R:3 #=T CELL(abcABC):=T 1.889726e+02=T 90.00000=T Traj:=T positionsangstrom=T Step:=T 0=T Bead:=T pbc="F F F"
C      -44.02190000     -31.95580000     -74.85900000
C      -45.10850000     -31.37600000     -74.16810000
C      -46.23050000     -32.08980000     -74.15320000
C      -46.40060000     -33.37100000     -74.74460000
C      -45.22430000     -33.98940000     -75.25610000
C      -44.07960000     -33.28740000     -75.33410000
H      -43.15930000     -31.35750000     -75.20100000
H      -47.07540000     -31.68960000     -73.55960000
H      -45.37460000     -35.00940000     -75.58360000
H      -43.17770000     -33.76030000     -75.73990000
C      -47.78600000     -34.06880000     -74.63500000
H      -47.79890000     -35.03710000     -75.15000000
H      -48.55890000     -33.43110000     -75.13170000
C      -44.83650000     -30.05330000     -73.51810000
H      -43.77200000     -30.11800000     -73.19880000
H      -44.96360000     -29.22940000     -74.13640000
S      -48.22280000     -34.15540000     -72.82650000
S      -45.80840000     -29.64740000     -71.91940000
C      -46.83960000     -35.03540000     -71.93910000
H      -46.94000000     -36.02360000     -72.39400000
H      -45.81160000     -34.74730000     -72.18780000
C      -44.89380000     -30.61640000     -70.57540000
H      -45.15250000     -30.32530000     -69.56810000
H      -43.81400000     -30.54180000     -70.78520000
C      -45.18690000     -32.10430000     -70.52790000
H      -46.28430000     -32.26140000     -70.41600000
H      -44.91520000     -32.64000000     -71.52530000
C      -47.05090000     -34.98950000     -70.41110000
H      -47.88920000     -35.69030000     -70.15140000
H      -47.54010000     -34.05030000     -70.18390000
C      -45.87740000     -35.30320000     -69.48230000
C      -45.85310000     -36.41740000     -68.70660000
C      -44.75910000     -34.41690000     -69.23260000
H      -46.60680000     -37.26270000     -68.75890000
C      -43.86310000     -34.95680000     -68.34020000
C      -44.46640000     -33.00850000     -69.56060000
C      -43.23290000     -32.62280000     -69.00160000
S      -44.40130000     -36.48770000     -67.69160000
S      -42.53590000     -33.88000000     -68.00770000
H      -42.80130000     -31.60560000     -69.00260000
