40
Properties=species:S:1:pos:R:3 #=T CELL(abcABC):=T 1.889726e+02=T 90.00000=T Traj:=T positionsangstrom=T Step:=T 0=T Bead:=T pbc="F F F"
C      -42.82880000     -32.95930000     -74.06790000
C      -43.42380000     -31.81570000     -73.44270000
C      -44.76740000     -31.61670000     -73.57590000
C      -45.52240000     -32.39360000     -74.47150000
C      -44.97210000     -33.53540000     -74.98300000
C      -43.65350000     -33.86120000     -74.75050000
H      -41.78780000     -33.18720000     -73.99760000
H      -45.27740000     -30.70480000     -73.20700000
H      -45.51780000     -34.24030000     -75.56800000
H      -43.24200000     -34.80510000     -75.05500000
C      -46.95910000     -32.03370000     -74.83270000
H      -47.18620000     -32.28370000     -75.83890000
H      -47.04580000     -30.99750000     -74.83960000
C      -42.64090000     -30.69910000     -72.75400000
H      -41.61600000     -30.96710000     -72.52400000
H      -42.70860000     -29.71240000     -73.29460000
S      -48.21760000     -32.59570000     -73.56760000
S      -43.50920000     -29.99810000     -71.26190000
C      -47.43050000     -33.91940000     -72.56750000
H      -47.89410000     -34.96770000     -72.65120000
H      -46.40910000     -33.90920000     -72.65970000
C      -43.73300000     -31.38140000     -69.97090000
H      -44.38200000     -30.95230000     -69.16210000
H      -42.75350000     -31.47540000     -69.40640000
C      -44.25880000     -32.63870000     -70.57800000
H      -45.09560000     -32.43270000     -71.26550000
H      -43.59900000     -33.12110000     -71.31600000
C      -47.64110000     -33.59010000     -71.08540000
H      -48.69610000     -33.56180000     -70.91250000
H      -47.23480000     -32.65950000     -70.74240000
C      -46.99900000     -34.70260000     -70.19490000
C      -47.72520000     -35.79540000     -69.70140000
C      -45.70770000     -34.56930000     -69.53270000
H      -48.78680000     -36.13190000     -69.95400000
C      -45.54480000     -35.58240000     -68.56200000
C      -44.57420000     -33.65860000     -69.52780000
C      -43.64050000     -33.95670000     -68.55110000
S      -46.86810000     -36.66140000     -68.44480000
S      -44.05990000     -35.43790000     -67.71440000
H      -42.70400000     -33.40260000     -68.42830000
