40
Properties=species:S:1:pos:R:3 #=T CELL(abcABC):=T 1.889726e+02=T 90.00000=T Traj:=T positionsangstrom=T Step:=T 0=T Bead:=T pbc="F F F"
C      -42.80240000     -32.93310000     -74.10500000
C      -43.35240000     -31.75660000     -73.51940000
C      -44.68820000     -31.48530000     -73.83940000
C      -45.46500000     -32.38570000     -74.61940000
C      -44.90460000     -33.60450000     -75.02430000
C      -43.54150000     -33.85730000     -74.81110000
H      -41.74830000     -33.14910000     -73.91250000
H      -45.13810000     -30.60440000     -73.31740000
H      -45.51880000     -34.24200000     -75.69460000
H      -43.06580000     -34.80020000     -75.15390000
C      -46.98900000     -32.19410000     -74.87610000
H      -47.31450000     -32.90870000     -75.75590000
H      -47.16720000     -31.19980000     -75.24670000
C      -42.47340000     -30.86420000     -72.70180000
H      -41.62810000     -31.49530000     -72.30700000
H      -41.80920000     -30.21610000     -73.27340000
S      -48.24230000     -32.47030000     -73.47340000
S      -43.25420000     -29.99160000     -71.24230000
C      -47.54750000     -33.82100000     -72.47880000
H      -47.89110000     -34.86130000     -72.74170000
H      -46.53200000     -33.97670000     -72.88860000
C      -43.62110000     -31.31940000     -69.97860000
H      -44.18680000     -30.94420000     -69.16720000
H      -42.61560000     -31.63000000     -69.72860000
C      -44.35180000     -32.60230000     -70.43780000
H      -45.39080000     -32.38260000     -70.78590000
H      -43.81290000     -33.00010000     -71.30140000
C      -47.61810000     -33.48290000     -71.01800000
H      -48.71310000     -33.48730000     -70.75140000
H      -47.25750000     -32.44750000     -70.87650000
C      -47.01080000     -34.55560000     -70.12810000
C      -47.87880000     -35.57520000     -69.67020000
C      -45.77940000     -34.51540000     -69.45150000
H      -48.84230000     -35.82580000     -70.19290000
C      -45.65450000     -35.63280000     -68.56800000
C      -44.56660000     -33.71280000     -69.46850000
C      -43.61860000     -34.21840000     -68.58440000
S      -47.06610000     -36.68320000     -68.56570000
S      -44.17280000     -35.57430000     -67.63310000
H      -42.63290000     -33.79780000     -68.53410000
