40
Properties=species:S:1:pos:R:3 #=T CELL(abcABC):=T 1.889726e+02=T 90.00000=T Traj:=T positionsangstrom=T Step:=T 0=T Bead:=T pbc="F F F"
C      -43.00020000     -32.79830000     -74.04810000
C      -43.65990000     -31.65030000     -73.60030000
C      -44.98790000     -31.46730000     -74.00840000
C      -45.72110000     -32.46920000     -74.66030000
C      -45.07640000     -33.66700000     -74.95330000
C      -43.68900000     -33.76170000     -74.72260000
H      -41.88600000     -32.96480000     -73.86910000
H      -45.46040000     -30.46960000     -73.78510000
H      -45.56850000     -34.51670000     -75.51360000
H      -43.16680000     -34.70310000     -75.00000000
C      -47.15650000     -32.21520000     -74.98660000
H      -47.45780000     -32.70400000     -75.92690000
H      -47.41580000     -31.24730000     -75.14390000
C      -42.96470000     -30.49940000     -72.92570000
H      -41.95860000     -30.75740000     -72.67980000
H      -42.92740000     -29.74970000     -73.70540000
S      -48.13200000     -32.91310000     -73.54450000
S      -43.65770000     -29.94770000     -71.32320000
C      -47.01300000     -33.89880000     -72.48580000
H      -47.08770000     -34.95130000     -72.88180000
H      -46.00810000     -33.59730000     -72.56240000
C      -43.60170000     -31.31730000     -70.02510000
H      -43.69640000     -30.76610000     -69.12330000
H      -42.68080000     -31.91320000     -69.96850000
C      -44.70200000     -32.33500000     -70.25870000
H      -45.72160000     -31.88190000     -70.31700000
H      -44.64710000     -32.71730000     -71.27360000
C      -47.54710000     -33.79900000     -71.03210000
H      -48.58190000     -34.01710000     -71.01600000
H      -47.35570000     -32.73080000     -70.77930000
C      -46.97950000     -34.72760000     -69.98610000
C      -47.66390000     -35.83450000     -69.52870000
C      -45.66040000     -34.55020000     -69.32400000
H      -48.62220000     -36.22340000     -69.83860000
C      -45.37140000     -35.55780000     -68.43930000
C      -44.63190000     -33.53590000     -69.36250000
C      -43.52520000     -33.88600000     -68.61780000
S      -46.70610000     -36.68980000     -68.34760000
S      -43.78010000     -35.42990000     -67.81140000
H      -42.67290000     -33.26270000     -68.42770000
