40
Properties=species:S:1:pos:R:3 #=T CELL(abcABC):=T 1.889726e+02=T 90.00000=T Traj:=T positionsangstrom=T Step:=T 0=T Bead:=T pbc="F F F"
C      -42.96700000     -32.38620000     -73.90860000
C      -43.97440000     -31.36230000     -73.79630000
C      -45.27740000     -31.67700000     -74.03030000
C      -45.63810000     -32.94100000     -74.48350000
C      -44.64610000     -33.95030000     -74.61730000
C      -43.29050000     -33.65380000     -74.41370000
H      -41.94000000     -32.13090000     -73.59430000
H      -46.05630000     -30.94080000     -73.77550000
H      -44.99970000     -34.95140000     -74.94320000
H      -42.60670000     -34.51720000     -74.52660000
C      -47.06270000     -33.30570000     -74.71790000
H      -47.17780000     -34.34850000     -75.02920000
H      -47.61400000     -32.80050000     -75.53670000
C      -43.56490000     -30.00090000     -73.21520000
H      -42.49100000     -29.98900000     -73.19050000
H      -43.85000000     -29.11560000     -73.83470000
S      -48.15750000     -33.03670000     -73.25670000
S      -44.28560000     -29.73220000     -71.56360000
C      -47.45590000     -34.19060000     -72.03860000
H      -47.80700000     -35.22170000     -72.34270000
H      -46.32560000     -34.08960000     -72.16120000
C      -43.79040000     -31.22490000     -70.67270000
H      -43.16510000     -30.91370000     -69.81060000
H      -43.17460000     -31.79870000     -71.40640000
C      -44.95070000     -31.99620000     -70.09610000
H      -45.58640000     -31.32870000     -69.42980000
H      -45.67530000     -32.04730000     -70.91720000
C      -47.86730000     -33.80750000     -70.63110000
H      -48.89860000     -34.07080000     -70.53360000
H      -47.75620000     -32.76390000     -70.24790000
C      -46.93390000     -34.76870000     -69.80160000
C      -47.29190000     -36.02970000     -69.58050000
C      -45.55810000     -34.42020000     -69.33250000
H      -48.31480000     -36.39160000     -69.71910000
C      -45.05400000     -35.51440000     -68.64730000
C      -44.63090000     -33.27470000     -69.37300000
C      -43.49910000     -33.56650000     -68.67240000
S      -46.07550000     -36.93140000     -68.60400000
S      -43.47230000     -35.20500000     -68.01820000
H      -42.57660000     -32.94560000     -68.74960000
