40
Properties=species:S:1:pos:R:3 #=T CELL(abcABC):=T 1.889726e+02=T 90.00000=T Traj:=T positionsangstrom=T Step:=T 0=T Bead:=T pbc="F F F"
C      -47.23670000     -35.78400000     -68.43100000
C      -46.17130000     -34.93140000     -68.13200000
C      -46.43890000     -33.57080000     -68.25220000
C      -47.68950000     -33.08460000     -68.66620000
C      -48.73380000     -33.99290000     -68.74920000
C      -48.50190000     -35.34390000     -68.62500000
H      -47.01580000     -36.88930000     -68.36180000
H      -45.69690000     -32.77400000     -68.11180000
H      -49.71490000     -33.60420000     -69.15780000
H      -49.31250000     -36.01020000     -68.81460000
C      -47.88280000     -31.63610000     -68.96170000
H      -47.53710000     -30.98300000     -68.12070000
H      -48.90230000     -31.50860000     -69.12070000
C      -44.80680000     -35.39360000     -67.85150000
H      -44.15780000     -34.58050000     -67.70550000
H      -44.77510000     -36.05750000     -66.92320000
S      -46.87300000     -31.14950000     -70.53500000
S      -44.06260000     -36.54600000     -69.21670000
C      -47.77290000     -31.93560000     -71.93970000
H      -48.58030000     -32.46240000     -71.43560000
H      -48.14560000     -31.10450000     -72.63990000
C      -43.43070000     -35.43330000     -70.53950000
H      -42.87890000     -36.06260000     -71.29580000
H      -42.75060000     -34.80600000     -70.06060000
C      -44.33060000     -34.55680000     -71.31840000
H      -45.17210000     -35.00990000     -71.80500000
H      -44.80510000     -33.85030000     -70.59720000
C      -46.94200000     -32.98880000     -72.65740000
H      -47.57600000     -33.42150000     -73.44360000
H      -46.82250000     -33.82550000     -71.94340000
C      -45.71440000     -32.53490000     -73.43650000
C      -45.88040000     -31.64580000     -74.44920000
C      -44.27370000     -32.86790000     -73.27070000
H      -46.80710000     -31.27600000     -74.80500000
C      -43.49490000     -32.28840000     -74.28450000
C      -43.56290000     -33.72690000     -72.34600000
C      -42.20850000     -33.75260000     -72.60570000
S      -44.38850000     -31.18660000     -75.28160000
S      -41.80520000     -32.67540000     -74.01640000
H      -41.56810000     -34.49470000     -72.07640000
