40
Properties=species:S:1:pos:R:3 #=T CELL(abcABC):=T 1.889726e+02=T 90.00000=T Traj:=T positionsangstrom=T Step:=T 0=T Bead:=T pbc="F F F"
C      -48.18240000     -30.27100000     -69.98510000
C      -46.83690000     -30.27580000     -70.47250000
C      -45.81530000     -30.91500000     -69.76010000
C      -46.11890000     -31.33580000     -68.45400000
C      -47.41440000     -31.23770000     -67.91850000
C      -48.48450000     -30.77360000     -68.73480000
H      -48.92950000     -30.01930000     -70.69780000
H      -44.83160000     -30.99390000     -70.13170000
H      -47.59120000     -31.66010000     -66.94810000
H      -49.47250000     -30.80980000     -68.40640000
C      -45.18970000     -32.01460000     -67.46290000
H      -45.71280000     -32.66880000     -66.75860000
H      -45.01140000     -31.25640000     -66.73070000
C      -46.63380000     -29.60410000     -71.83350000
H      -47.53640000     -29.48250000     -72.44300000
H      -46.31010000     -28.49130000     -71.80350000
S      -43.67220000     -32.66920000     -68.17070000
S      -45.33800000     -30.28190000     -72.94020000
C      -44.47540000     -33.86500000     -69.43630000
H      -45.11350000     -34.50390000     -68.82630000
H      -45.17530000     -33.25530000     -69.98790000
C      -45.68800000     -32.06460000     -72.93770000
H      -46.20010000     -32.30430000     -73.88010000
H      -46.13580000     -32.44060000     -72.00310000
C      -44.32260000     -32.75500000     -73.19400000
H      -43.84510000     -32.19780000     -74.01050000
H      -43.75440000     -32.65660000     -72.24910000
C      -43.43270000     -34.52640000     -70.35510000
H      -42.63450000     -34.99640000     -69.77330000
H      -42.97150000     -33.67290000     -70.86680000
C      -44.01820000     -35.56330000     -71.22530000
C      -44.22400000     -36.84540000     -70.84640000
C      -44.41870000     -35.33940000     -72.64190000
H      -43.83840000     -37.24050000     -69.87000000
C      -44.86650000     -36.56700000     -73.18980000
C      -44.55970000     -34.21150000     -73.50480000
C      -45.12050000     -34.57520000     -74.69920000
S      -44.89520000     -37.90400000     -72.14550000
S      -45.56770000     -36.29000000     -74.85090000
H      -45.38750000     -33.97550000     -75.56160000
