40
Properties=species:S:1:pos:R:3 #=T CELL(abcABC):=T 1.889726e+02=T 90.00000=T Traj:=T positionsangstrom=T Step:=T 0=T Bead:=T pbc="F F F"
C      -43.05430000     -32.30210000     -73.94920000
C      -44.05970000     -31.35470000     -73.82070000
C      -45.33470000     -31.77400000     -74.20880000
C      -45.61840000     -33.10630000     -74.42840000
C      -44.55200000     -34.05410000     -74.57930000
C      -43.26040000     -33.63920000     -74.30730000
H      -41.99920000     -31.90490000     -73.81770000
H      -46.16720000     -31.04490000     -74.11250000
H      -44.71840000     -35.09600000     -74.95320000
H      -42.43540000     -34.38150000     -74.29440000
C      -47.00220000     -33.55960000     -74.62670000
H      -47.08440000     -34.71340000     -74.88410000
H      -47.46620000     -33.00770000     -75.48390000
C      -43.86860000     -29.94550000     -73.42220000
H      -42.83920000     -29.57540000     -73.57830000
H      -44.55340000     -29.25600000     -73.89430000
S      -48.07250000     -33.01290000     -73.24250000
S      -44.37040000     -29.66390000     -71.61790000
C      -47.58420000     -34.24460000     -71.98730000
H      -48.06520000     -35.23970000     -72.07360000
H      -46.59020000     -34.32900000     -72.06930000
C      -43.94680000     -31.16040000     -70.59270000
H      -43.38150000     -30.79440000     -69.75900000
H      -43.19860000     -31.75530000     -71.19220000
C      -45.13850000     -32.00490000     -70.22550000
H      -45.85200000     -31.43830000     -69.61560000
H      -45.65950000     -32.43840000     -71.06390000
C      -47.88820000     -33.87590000     -70.44260000
H      -48.88480000     -34.02560000     -70.19960000
H      -47.63190000     -32.77970000     -70.32020000
C      -46.91530000     -34.79390000     -69.66200000
C      -47.23720000     -36.05010000     -69.25890000
C      -45.55580000     -34.40530000     -69.29120000
H      -48.15140000     -36.54200000     -69.44600000
C      -44.95350000     -35.45580000     -68.63270000
C      -44.70650000     -33.22740000     -69.41290000
C      -43.52540000     -33.45970000     -68.77600000
S      -45.89250000     -37.00850000     -68.62860000
S      -43.32790000     -35.07350000     -68.11790000
H      -42.83830000     -32.61910000     -68.58170000
