40
Properties=species:S:1:pos:R:3 #=T CELL(abcABC):=T 1.889726e+02=T 90.00000=T Traj:=T positionsangstrom=T Step:=T 0=T Bead:=T pbc="F F F"
C      -42.51150000     -33.05590000     -74.05110000
C      -42.98740000     -31.80490000     -73.66140000
C      -44.25820000     -31.40800000     -74.02400000
C      -45.16070000     -32.33870000     -74.55230000
C      -44.67640000     -33.57610000     -75.03350000
C      -43.39260000     -33.98020000     -74.67650000
H      -41.49100000     -33.35950000     -73.84980000
H      -44.70720000     -30.47570000     -73.64960000
H      -45.35000000     -34.30650000     -75.47660000
H      -42.99670000     -34.99450000     -74.96880000
C      -46.63660000     -31.93800000     -74.91800000
H      -46.89970000     -32.73930000     -75.62160000
H      -46.68040000     -30.92560000     -75.32310000
C      -42.16170000     -30.84270000     -72.67220000
H      -41.28820000     -31.44110000     -72.27110000
H      -41.91040000     -29.91000000     -73.20520000
S      -47.78740000     -31.99100000     -73.47210000
S      -42.96100000     -30.37130000     -71.00210000
C      -47.26020000     -33.49310000     -72.54260000
H      -47.67300000     -34.40020000     -73.07580000
H      -46.19390000     -33.62170000     -72.38730000
C      -43.06200000     -32.01240000     -70.12570000
H      -42.62170000     -31.78260000     -69.08010000
H      -42.61980000     -32.90230000     -70.63890000
C      -44.58840000     -32.36490000     -69.91090000
H      -45.25160000     -31.74140000     -69.36970000
H      -44.95640000     -32.37310000     -70.95990000
C      -47.89160000     -33.36000000     -71.08500000
H      -48.97110000     -33.37990000     -71.20500000
H      -47.54820000     -32.37640000     -70.77130000
C      -47.43720000     -34.37160000     -70.11810000
C      -48.32820000     -35.31940000     -69.64810000
C      -46.15210000     -34.51060000     -69.44120000
H      -49.40220000     -35.30910000     -69.90640000
C      -46.14230000     -35.61780000     -68.60160000
C      -44.86640000     -33.77060000     -69.38320000
C      -43.92950000     -34.44510000     -68.61490000
S      -47.63500000     -36.59120000     -68.61090000
S      -44.56140000     -35.91200000     -67.96110000
H      -43.05750000     -33.93700000     -68.30110000
