40
Properties=species:S:1:pos:R:3 #=T CELL(abcABC):=T 1.889726e+02=T 90.00000=T Traj:=T positionsangstrom=T Step:=T 0=T Bead:=T pbc="F F F"
C      -42.24020000     -32.96730000     -73.73100000
C      -42.83270000     -31.69370000     -73.44610000
C      -44.17320000     -31.47760000     -73.80220000
C      -44.98850000     -32.51070000     -74.30960000
C      -44.42290000     -33.77170000     -74.51640000
C      -43.02840000     -33.91910000     -74.33050000
H      -41.22770000     -33.13470000     -73.34530000
H      -44.61580000     -30.56260000     -73.51240000
H      -44.98280000     -34.61280000     -74.96070000
H      -42.64930000     -34.92470000     -74.56360000
C      -46.43200000     -32.24180000     -74.68680000
H      -46.81470000     -33.14080000     -75.19840000
H      -46.43800000     -31.48180000     -75.46960000
C      -42.14320000     -30.74450000     -72.57730000
H      -41.07030000     -30.95550000     -72.52340000
H      -42.07630000     -29.65960000     -72.92440000
S      -47.36370000     -31.59740000     -73.31290000
S      -42.89190000     -30.54500000     -70.83340000
C      -47.43930000     -33.19150000     -72.45010000
H      -48.08460000     -33.85610000     -72.96950000
H      -46.55370000     -33.75700000     -72.47590000
C      -43.28160000     -32.32500000     -70.46500000
H      -42.56120000     -32.60120000     -69.66420000
H      -43.14650000     -32.88910000     -71.43520000
C      -44.73380000     -32.44960000     -69.92410000
H      -45.06130000     -31.64800000     -69.26070000
H      -45.39250000     -32.26960000     -70.76990000
C      -47.93360000     -32.98520000     -71.02250000
H      -49.06440000     -32.95250000     -70.98500000
H      -47.58580000     -32.02620000     -70.67430000
C      -47.53460000     -34.14100000     -70.24270000
C      -48.43580000     -35.14060000     -70.02810000
C      -46.25790000     -34.45590000     -69.64340000
H      -49.40750000     -35.19130000     -70.46910000
C      -46.29710000     -35.77820000     -69.01500000
C      -45.01490000     -33.81660000     -69.40910000
C      -44.18100000     -34.60620000     -68.63180000
S      -47.82560000     -36.59150000     -69.14110000
S      -44.88450000     -36.12380000     -68.08310000
H      -43.08480000     -34.48180000     -68.41790000
