40
Properties=species:S:1:pos:R:3 #=T CELL(abcABC):=T 1.889726e+02=T 90.00000=T Traj:=T positionsangstrom=T Step:=T 0=T Bead:=T pbc="F F F"
C      -42.18950000     -33.24820000     -73.47850000
C      -42.66060000     -32.18450000     -72.70740000
C      -43.82190000     -31.56520000     -73.13940000
C      -44.58040000     -32.11390000     -74.17610000
C      -44.11980000     -33.22930000     -74.89430000
C      -42.92860000     -33.79600000     -74.50780000
H      -41.21330000     -33.68140000     -73.27540000
H      -44.21460000     -30.62840000     -72.71080000
H      -44.75180000     -33.65040000     -75.64270000
H      -42.47310000     -34.63260000     -74.99500000
C      -45.85340000     -31.46230000     -74.70230000
H      -46.27910000     -32.17680000     -75.42510000
H      -45.70960000     -30.51440000     -75.17380000
C      -41.76800000     -31.58470000     -71.66410000
H      -41.07710000     -32.30830000     -71.23550000
H      -41.15310000     -30.81440000     -72.16070000
S      -47.26170000     -31.24810000     -73.48670000
S      -42.64650000     -30.74220000     -70.33090000
C      -47.04640000     -32.88410000     -72.58320000
H      -47.31740000     -33.72990000     -73.25520000
H      -46.05060000     -33.06310000     -72.21190000
C      -43.50750000     -32.10460000     -69.38130000
H      -43.75500000     -31.55600000     -68.51190000
H      -42.78960000     -32.88150000     -69.12730000
C      -44.62730000     -32.68440000     -70.19440000
H      -45.51090000     -31.93540000     -70.14350000
H      -44.36640000     -32.78300000     -71.25770000
C      -47.97670000     -32.90300000     -71.38090000
H      -49.08400000     -32.76840000     -71.66960000
H      -47.67560000     -32.11260000     -70.72140000
C      -47.80440000     -34.21950000     -70.55880000
C      -48.76920000     -35.18500000     -70.39730000
C      -46.53320000     -34.55890000     -69.96310000
H      -49.79450000     -35.15480000     -70.88730000
C      -46.69630000     -35.77410000     -69.27080000
C      -45.23650000     -33.98560000     -69.67270000
C      -44.51300000     -34.83780000     -68.85290000
S      -48.19570000     -36.53910000     -69.50520000
S      -45.23670000     -36.32390000     -68.39440000
H      -43.46870000     -34.64560000     -68.60270000
