40
Properties=species:S:1:pos:R:3 #=T CELL(abcABC):=T 1.889726e+02=T 90.00000=T Traj:=T positionsangstrom=T Step:=T 0=T Bead:=T pbc="F F F"
C      -42.17190000     -33.04120000     -73.60810000
C      -42.72800000     -31.76330000     -73.31640000
C      -44.01220000     -31.46570000     -73.78670000
C      -44.85170000     -32.48200000     -74.34480000
C      -44.26940000     -33.71240000     -74.68440000
C      -42.94200000     -33.99570000     -74.29800000
H      -41.12120000     -33.21290000     -73.39710000
H      -44.35430000     -30.48650000     -73.50970000
H      -44.88010000     -34.52960000     -75.11880000
H      -42.51610000     -34.96940000     -74.57910000
C      -46.24920000     -32.10690000     -74.75430000
H      -46.82530000     -33.04860000     -74.97380000
H      -46.24540000     -31.36170000     -75.52160000
C      -42.07570000     -30.67660000     -72.49300000
H      -41.02430000     -30.84530000     -72.36280000
H      -42.32360000     -29.66280000     -72.81350000
S      -47.11700000     -31.39970000     -73.25920000
S      -42.83930000     -30.56650000     -70.81770000
C      -47.53040000     -32.99040000     -72.44390000
H      -48.35380000     -33.52820000     -73.05670000
H      -46.64580000     -33.67780000     -72.39530000
C      -43.13250000     -32.24570000     -70.06900000
H      -42.71990000     -32.25390000     -69.05500000
H      -42.58210000     -33.03650000     -70.63490000
C      -44.70340000     -32.44910000     -69.94970000
H      -45.02450000     -31.45580000     -69.46190000
H      -45.17050000     -32.40080000     -70.92160000
C      -47.93100000     -32.86290000     -70.93620000
H      -48.99190000     -32.63210000     -70.80300000
H      -47.30620000     -32.17090000     -70.39130000
C      -47.74540000     -34.24110000     -70.18580000
C      -48.64170000     -35.27250000     -70.11270000
C      -46.47790000     -34.54460000     -69.53540000
H      -49.63640000     -35.38980000     -70.45820000
C      -46.50380000     -35.84500000     -69.01500000
C      -45.20630000     -33.82020000     -69.34760000
C      -44.34530000     -34.61600000     -68.67970000
S      -48.00240000     -36.70440000     -69.27720000
S      -44.97580000     -36.25310000     -68.32630000
H      -43.33130000     -34.39410000     -68.30360000
