40
Properties=species:S:1:pos:R:3 #=T CELL(abcABC):=T 1.889726e+02=T 90.00000=T Traj:=T positionsangstrom=T Step:=T 0=T Bead:=T pbc="F F F"
C      -42.75260000     -33.15590000     -73.94540000
C      -43.27570000     -31.99550000     -73.37750000
C      -44.61590000     -31.66920000     -73.61770000
C      -45.34840000     -32.38280000     -74.57280000
C      -44.81880000     -33.44350000     -75.22960000
C      -43.50050000     -33.84570000     -74.87870000
H      -41.77320000     -33.56990000     -73.69070000
H      -45.18350000     -30.79050000     -73.16220000
H      -45.34690000     -33.86980000     -76.10620000
H      -43.04210000     -34.74900000     -75.36820000
C      -46.70930000     -32.00330000     -74.94290000
H      -47.00390000     -32.58290000     -75.86260000
H      -46.62630000     -30.99030000     -75.27690000
C      -42.33110000     -31.07570000     -72.64650000
H      -41.32000000     -31.34030000     -72.53920000
H      -42.18090000     -30.24350000     -73.26760000
S      -47.86820000     -32.08410000     -73.52780000
S      -42.95630000     -30.30280000     -71.10580000
C      -47.14460000     -33.44550000     -72.48690000
H      -47.45950000     -34.43220000     -72.86560000
H      -46.14210000     -33.53690000     -72.59460000
C      -43.25970000     -31.82610000     -70.13610000
H      -42.96520000     -31.57830000     -69.09800000
H      -42.61920000     -32.61980000     -70.51820000
C      -44.70550000     -32.43430000     -70.20570000
H      -45.39160000     -31.63620000     -69.78860000
H      -45.02520000     -32.48430000     -71.24800000
C      -47.70350000     -33.34270000     -71.05790000
H      -48.84110000     -33.45760000     -71.08260000
H      -47.46780000     -32.44100000     -70.48480000
C      -47.28480000     -34.47430000     -70.12490000
C      -48.14990000     -35.50380000     -69.73940000
C      -45.95170000     -34.57890000     -69.51070000
H      -49.18010000     -35.62710000     -70.10310000
C      -45.98000000     -35.56650000     -68.59330000
C      -44.78220000     -33.75610000     -69.48820000
C      -43.85010000     -34.29130000     -68.63210000
S      -47.41130000     -36.53250000     -68.50040000
S      -44.41290000     -35.73250000     -67.81920000
H      -42.87370000     -33.89690000     -68.46430000
