40
Properties=species:S:1:pos:R:3 #=T CELL(abcABC):=T 1.889726e+02=T 90.00000=T Traj:=T positionsangstrom=T Step:=T 0=T Bead:=T pbc="F F F"
C      -42.38720000     -32.93690000     -73.75600000
C      -42.90490000     -31.66140000     -73.57650000
C      -44.27080000     -31.43530000     -73.79050000
C      -45.03590000     -32.37080000     -74.51060000
C      -44.41930000     -33.63530000     -74.84060000
C      -43.16390000     -33.94520000     -74.38210000
H      -41.33460000     -33.16550000     -73.42780000
H      -44.60200000     -30.47130000     -73.55630000
H      -44.97680000     -34.41980000     -75.34630000
H      -42.79120000     -34.94800000     -74.49570000
C      -46.44380000     -31.97350000     -74.91230000
H      -46.96000000     -32.59670000     -75.64440000
H      -46.59540000     -30.96430000     -75.34570000
C      -42.10310000     -30.73380000     -72.72370000
H      -41.06230000     -31.09680000     -72.61500000
H      -42.15060000     -29.76440000     -73.23110000
S      -47.63180000     -31.79740000     -73.46640000
S      -42.98250000     -30.59350000     -71.06050000
C      -47.36310000     -33.21710000     -72.33350000
H      -47.88650000     -33.99070000     -72.87570000
H      -46.23150000     -33.34700000     -72.26240000
C      -43.28800000     -32.30200000     -70.45800000
H      -42.53800000     -32.40240000     -69.71670000
H      -43.03520000     -33.16640000     -71.03650000
C      -44.76670000     -32.43810000     -69.94620000
H      -44.91400000     -31.58730000     -69.24020000
H      -45.38580000     -32.35250000     -70.82150000
C      -47.92950000     -33.04760000     -70.91180000
H      -48.97050000     -32.82970000     -70.81530000
H      -47.50460000     -32.12950000     -70.41510000
C      -47.47160000     -34.26310000     -70.09640000
C      -48.37400000     -35.30850000     -69.82810000
C      -46.24370000     -34.50760000     -69.42080000
H      -49.39590000     -35.46470000     -70.13220000
C      -46.17680000     -35.77640000     -68.75410000
C      -45.00880000     -33.80520000     -69.34400000
C      -43.98210000     -34.49760000     -68.67090000
S      -47.72150000     -36.61620000     -68.80780000
S      -44.66010000     -36.02680000     -68.03290000
H      -42.96610000     -34.14560000     -68.44840000
