40
Properties=species:S:1:pos:R:3 #=T CELL(abcABC):=T 1.889726e+02=T 90.00000=T Traj:=T positionsangstrom=T Step:=T 0=T Bead:=T pbc="F F F"
C      -42.29770000     -33.29150000     -73.39710000
C      -42.69320000     -32.17180000     -72.66230000
C      -43.72600000     -31.40780000     -73.25380000
C      -44.44410000     -31.93040000     -74.35590000
C      -44.10430000     -33.15530000     -74.99500000
C      -42.99320000     -33.80910000     -74.53680000
H      -41.48930000     -33.96390000     -73.09550000
H      -44.12080000     -30.50280000     -72.77440000
H      -44.74380000     -33.42190000     -75.82640000
H      -42.65320000     -34.74350000     -74.95390000
C      -45.72840000     -31.25200000     -74.77550000
H      -46.13310000     -31.52880000     -75.75490000
H      -45.51930000     -30.16840000     -74.88770000
C      -41.84090000     -31.82230000     -71.42370000
H      -41.50100000     -32.78780000     -71.02600000
H      -40.90750000     -31.29240000     -71.63760000
S      -47.11070000     -31.40370000     -73.57920000
S      -42.60910000     -30.73360000     -70.05180000
C      -47.06010000     -32.97660000     -72.73960000
H      -47.58580000     -33.73880000     -73.36420000
H      -46.12130000     -33.29460000     -72.50520000
C      -43.82140000     -31.97360000     -69.28950000
H      -44.49480000     -31.52620000     -68.46110000
H      -43.20930000     -32.69360000     -68.69950000
C      -44.71870000     -32.76510000     -70.24840000
H      -45.53520000     -32.20330000     -70.56880000
H      -44.11080000     -33.01630000     -71.13160000
C      -47.87880000     -32.87080000     -71.42870000
H      -48.94040000     -32.73560000     -71.52010000
H      -47.51320000     -31.97620000     -70.96350000
C      -47.72100000     -34.11980000     -70.63410000
C      -48.66660000     -35.08850000     -70.64710000
C      -46.61420000     -34.49400000     -69.73320000
H      -49.55640000     -35.06970000     -71.27990000
C      -46.76430000     -35.82350000     -69.16610000
C      -45.23370000     -34.06060000     -69.62880000
C      -44.40980000     -34.88910000     -68.87730000
S      -48.26930000     -36.49110000     -69.65270000
S      -45.29600000     -36.37060000     -68.32860000
H      -43.31750000     -34.73220000     -68.70500000
