40
Properties=species:S:1:pos:R:3 #=T CELL(abcABC):=T 1.889726e+02=T 90.00000=T Traj:=T positionsangstrom=T Step:=T 0=T Bead:=T pbc="F F F"
C      -42.02970000     -33.32030000     -73.07330000
C      -42.45050000     -32.03920000     -72.69050000
C      -43.46780000     -31.26230000     -73.39100000
C      -44.14520000     -31.92480000     -74.36840000
C      -43.59300000     -33.11710000     -74.95860000
C      -42.55710000     -33.80930000     -74.27000000
H      -41.26160000     -33.85850000     -72.47680000
H      -43.78070000     -30.36500000     -72.87750000
H      -44.06710000     -33.53820000     -75.82330000
H      -42.23940000     -34.77850000     -74.66560000
C      -45.39810000     -31.23070000     -74.87390000
H      -45.69700000     -31.78010000     -75.81290000
H      -45.15560000     -30.22790000     -75.28430000
C      -41.77830000     -31.36930000     -71.50270000
H      -40.92390000     -31.91600000     -71.13510000
H      -41.46200000     -30.35400000     -71.85690000
S      -46.80670000     -31.16330000     -73.68600000
S      -42.77530000     -30.87800000     -69.94420000
C      -46.92340000     -32.86100000     -72.88780000
H      -47.34450000     -33.51800000     -73.66800000
H      -45.89060000     -33.17310000     -72.63140000
C      -43.52940000     -32.51170000     -69.39240000
H      -43.89560000     -32.23830000     -68.41410000
H      -42.83140000     -33.26470000     -69.15730000
C      -44.52170000     -33.28380000     -70.28200000
H      -45.23540000     -32.72710000     -70.90280000
H      -43.92690000     -33.91110000     -70.96570000
C      -47.81800000     -32.83240000     -71.56980000
H      -48.85400000     -32.58380000     -71.80310000
H      -47.48110000     -32.09680000     -70.83630000
C      -47.80030000     -34.13510000     -70.83950000
C      -48.83150000     -34.97680000     -70.81640000
C      -46.71020000     -34.64870000     -69.96170000
H      -49.85750000     -34.87880000     -71.19990000
C      -47.07590000     -35.76440000     -69.26110000
C      -45.39920000     -34.22960000     -69.51550000
C      -44.80920000     -35.00350000     -68.51500000
S      -48.66090000     -36.43720000     -69.73350000
S      -45.85780000     -36.34520000     -68.09770000
H      -43.97860000     -34.78720000     -67.95050000
