40
Properties=species:S:1:pos:R:3 #=T CELL(abcABC):=T 1.889726e+02=T 90.00000=T Traj:=T positionsangstrom=T Step:=T 0=T Bead:=T pbc="F F F"
C      -41.58700000     -33.01020000     -73.04300000
C      -42.20280000     -31.89760000     -72.47030000
C      -43.47850000     -31.52770000     -73.03030000
C      -43.92730000     -32.18230000     -74.19030000
C      -43.22080000     -33.18940000     -74.84900000
C      -42.05960000     -33.62600000     -74.21460000
H      -40.66180000     -33.38990000     -72.63210000
H      -44.13500000     -30.75610000     -72.50610000
H      -43.52440000     -33.64980000     -75.79540000
H      -41.56030000     -34.58620000     -74.46920000
C      -45.20250000     -31.75330000     -74.86110000
H      -45.42620000     -32.40650000     -75.72950000
H      -44.95220000     -30.78220000     -75.33450000
C      -41.60340000     -31.21550000     -71.31590000
H      -40.67990000     -31.81200000     -71.03740000
H      -41.30270000     -30.14590000     -71.56660000
S      -46.49220000     -31.47050000     -73.67050000
S      -42.76370000     -30.96290000     -69.89750000
C      -46.62440000     -32.92400000     -72.40930000
H      -46.69480000     -33.94580000     -72.94860000
H      -45.66360000     -33.03530000     -71.86640000
C      -43.65580000     -32.58960000     -69.73680000
H      -43.14910000     -33.40120000     -69.12580000
H      -43.62140000     -32.98430000     -70.73610000
C      -45.07270000     -32.72420000     -69.29280000
H      -45.14860000     -32.37260000     -68.33310000
H      -45.71030000     -32.04450000     -69.85570000
C      -47.69310000     -32.59320000     -71.47460000
H      -48.62920000     -32.24260000     -71.94220000
H      -47.48810000     -31.63860000     -70.90440000
C      -47.96270000     -33.83460000     -70.60100000
C      -49.06350000     -34.64720000     -70.92830000
C      -46.92750000     -34.47210000     -69.86400000
H      -49.82550000     -34.34430000     -71.58600000
C      -47.35620000     -35.76460000     -69.56720000
C      -45.62990000     -34.14050000     -69.37840000
C      -45.06340000     -35.20580000     -68.71200000
S      -48.97810000     -36.16220000     -70.08910000
S      -46.10870000     -36.65430000     -68.73170000
H      -44.05630000     -35.08030000     -68.17640000
