40
Properties=species:S:1:pos:R:3 #=T CELL(abcABC):=T 1.889726e+02=T 90.00000=T Traj:=T positionsangstrom=T Step:=T 0=T Bead:=T pbc="F F F"
C      -49.04340000     -32.07290000     -70.16650000
C      -47.95690000     -31.14670000     -70.08770000
C      -46.88140000     -31.52680000     -69.26930000
C      -46.97880000     -32.68470000     -68.43750000
C      -47.97540000     -33.60730000     -68.60680000
C      -49.05190000     -33.24710000     -69.44600000
H      -49.83610000     -31.93270000     -70.91330000
H      -46.05000000     -30.97490000     -69.18860000
H      -48.05790000     -34.47080000     -67.99750000
H      -49.85380000     -33.93300000     -69.58020000
C      -45.88100000     -33.06080000     -67.46740000
H      -46.04050000     -34.07030000     -67.10680000
H      -45.92060000     -32.48010000     -66.54800000
C      -47.76890000     -29.95450000     -70.91640000
H      -48.56000000     -29.80330000     -71.57950000
H      -47.59200000     -28.97610000     -70.32260000
S      -44.18160000     -32.82130000     -68.09800000
S      -46.19290000     -30.00580000     -71.93950000
C      -44.00950000     -34.06050000     -69.45890000
H      -43.72360000     -34.99410000     -69.05360000
H      -44.99080000     -34.15940000     -69.78570000
C      -46.26270000     -31.65660000     -72.77120000
H      -45.62460000     -31.47640000     -73.61380000
H      -47.31640000     -31.91040000     -73.00510000
C      -45.71190000     -32.82170000     -71.94040000
H      -44.88480000     -32.34430000     -71.26850000
H      -46.46420000     -33.28990000     -71.25060000
C      -42.90390000     -33.63530000     -70.51060000
H      -41.98400000     -33.72850000     -70.03300000
H      -43.13640000     -32.56920000     -70.81360000
C      -42.88290000     -34.59990000     -71.67420000
C      -41.80610000     -35.39150000     -72.09640000
C      -43.93330000     -34.65140000     -72.70400000
H      -40.75630000     -35.34730000     -71.75490000
C      -43.78480000     -35.63030000     -73.69610000
C      -45.18460000     -33.92610000     -72.84500000
C      -45.96810000     -34.43840000     -73.90250000
S      -42.19500000     -36.30670000     -73.60390000
S      -45.11490000     -35.75780000     -74.79570000
H      -46.72350000     -33.84110000     -74.44200000
