40
Properties=species:S:1:pos:R:3 #=T CELL(abcABC):=T 1.889726e+02=T 90.00000=T Traj:=T positionsangstrom=T Step:=T 0=T Bead:=T pbc="F F F"
C      -44.78170000     -29.29130000     -70.71260000
C      -45.51930000     -30.00650000     -71.66610000
C      -46.59500000     -30.76580000     -71.14430000
C      -46.99880000     -30.76900000     -69.81820000
C      -46.09830000     -30.14930000     -68.89930000
C      -45.03630000     -29.42900000     -69.35500000
H      -43.96880000     -28.62870000     -70.96840000
H      -47.27130000     -31.25300000     -71.85480000
H      -46.40420000     -30.28380000     -67.84410000
H      -44.47280000     -28.96310000     -68.62410000
C      -48.28360000     -31.35980000     -69.41990000
H      -48.81790000     -31.63540000     -70.34510000
H      -48.73510000     -30.62510000     -68.68560000
C      -45.13250000     -29.86210000     -73.12370000
H      -46.05740000     -29.61970000     -73.65470000
H      -44.48300000     -28.96070000     -73.15700000
S      -47.90930000     -32.96290000     -68.41230000
S      -44.33750000     -31.39290000     -73.73260000
C      -47.10820000     -33.99820000     -69.85530000
H      -47.84210000     -34.47660000     -70.55420000
H      -46.60650000     -33.21780000     -70.51500000
C      -43.19140000     -31.87490000     -72.32960000
H      -42.85350000     -31.01040000     -71.77820000
H      -42.23900000     -32.17310000     -72.85000000
C      -43.77830000     -32.92310000     -71.38770000
H      -43.20900000     -32.88740000     -70.44380000
H      -44.75860000     -32.73640000     -71.02200000
C      -46.01180000     -34.87410000     -69.32820000
H      -46.45470000     -35.49850000     -68.48290000
H      -45.14900000     -34.20350000     -68.93690000
C      -45.46250000     -35.83020000     -70.45770000
C      -45.86060000     -37.11300000     -70.52150000
C      -44.54330000     -35.49220000     -71.53250000
H      -46.56000000     -37.61590000     -69.85800000
C      -44.26100000     -36.62100000     -72.28510000
C      -43.88030000     -34.28960000     -72.00900000
C      -43.25790000     -34.60240000     -73.24110000
S      -45.29900000     -38.00700000     -71.94560000
S      -43.48120000     -36.24030000     -73.77040000
H      -42.81290000     -34.03490000     -74.03100000
