40
Properties=species:S:1:pos:R:3 #=T CELL(abcABC):=T 1.889726e+02=T 90.00000=T Traj:=T positionsangstrom=T Step:=T 0=T Bead:=T pbc="F F F"
C      -41.38140000     -33.16330000     -72.69500000
C      -42.10400000     -32.10040000     -72.13800000
C      -43.12780000     -31.54330000     -72.88780000
C      -43.51180000     -32.09600000     -74.13760000
C      -42.92080000     -33.28770000     -74.58520000
C      -41.75340000     -33.81430000     -73.88590000
H      -40.41510000     -33.46520000     -72.28940000
H      -43.62960000     -30.69730000     -72.41350000
H      -43.43010000     -33.84630000     -75.39730000
H      -41.07330000     -34.49840000     -74.35680000
C      -44.65600000     -31.61640000     -74.89410000
H      -45.08400000     -32.42250000     -75.60150000
H      -44.56610000     -30.70910000     -75.53310000
C      -41.73160000     -31.37430000     -70.89920000
H      -40.92490000     -31.90650000     -70.43750000
H      -41.43800000     -30.31940000     -71.05670000
S      -46.19650000     -31.11690000     -73.86640000
S      -43.12750000     -31.24920000     -69.71850000
C      -46.31360000     -32.43440000     -72.62500000
H      -46.63820000     -33.34380000     -73.11170000
H      -45.31530000     -32.72410000     -72.31300000
C      -43.76610000     -33.01380000     -69.77590000
H      -43.12590000     -33.74220000     -69.27860000
H      -43.90930000     -33.24510000     -70.87530000
C      -45.06190000     -33.02170000     -68.94060000
H      -44.79820000     -32.97510000     -67.83190000
H      -45.62500000     -32.14070000     -69.20410000
C      -47.32480000     -32.26520000     -71.46510000
H      -48.22090000     -31.66860000     -71.77510000
H      -46.75980000     -31.65620000     -70.78910000
C      -47.81970000     -33.64800000     -70.96480000
C      -48.81920000     -34.37120000     -71.50380000
C      -47.06990000     -34.44330000     -69.97760000
H      -49.42640000     -34.18550000     -72.42760000
C      -47.61870000     -35.69030000     -69.78030000
C      -45.91540000     -34.31640000     -69.05230000
C      -45.69720000     -35.40330000     -68.21060000
S      -48.88450000     -35.99920000     -70.90810000
S      -46.87870000     -36.76080000     -68.53770000
H      -44.87230000     -35.36590000     -67.54670000
