40
Properties=species:S:1:pos:R:3 #=T CELL(abcABC):=T 1.889726e+02=T 90.00000=T Traj:=T positionsangstrom=T Step:=T 0=T Bead:=T pbc="F F F"
C      -41.47230000     -33.18930000     -72.52320000
C      -42.05790000     -32.04980000     -72.00790000
C      -43.03450000     -31.36990000     -72.73450000
C      -43.42740000     -31.85690000     -73.95960000
C      -42.91740000     -33.10160000     -74.44650000
C      -41.87340000     -33.73600000     -73.72300000
H      -40.70610000     -33.64600000     -71.95880000
H      -43.43650000     -30.39080000     -72.39840000
H      -43.33430000     -33.49880000     -75.34890000
H      -41.57510000     -34.70050000     -73.96770000
C      -44.59860000     -31.22110000     -74.79870000
H      -44.61260000     -31.82930000     -75.70270000
H      -44.14330000     -30.33920000     -75.13730000
C      -41.56310000     -31.53000000     -70.62780000
H      -40.60730000     -32.05530000     -70.30740000
H      -41.31200000     -30.49190000     -70.77460000
S      -46.23290000     -31.00950000     -73.92750000
S      -43.01580000     -31.51340000     -69.51130000
C      -46.32910000     -32.65000000     -73.03000000
H      -46.73620000     -33.32960000     -73.82710000
H      -45.37500000     -32.86650000     -72.58860000
C      -43.92270000     -33.09910000     -69.78090000
H      -43.33990000     -34.01900000     -69.71940000
H      -44.29850000     -33.06870000     -70.78800000
C      -45.18080000     -33.06240000     -68.81240000
H      -44.78500000     -32.93710000     -67.77610000
H      -45.80530000     -32.21450000     -68.98050000
C      -47.21700000     -32.41480000     -71.86750000
H      -48.07410000     -31.87560000     -72.13980000
H      -46.73300000     -31.73670000     -71.16130000
C      -47.60230000     -33.75600000     -71.26040000
C      -48.67770000     -34.43070000     -71.75310000
C      -47.00770000     -34.45750000     -70.10790000
H      -49.30890000     -34.15060000     -72.60220000
C      -47.59280000     -35.74410000     -69.94510000
C      -46.04540000     -34.28970000     -69.05730000
C      -45.91070000     -35.40890000     -68.20480000
S      -48.91910000     -36.00650000     -70.93610000
S      -46.97180000     -36.69540000     -68.56410000
H      -45.33750000     -35.42720000     -67.33520000
