40
Properties=species:S:1:pos:R:3 #=T CELL(abcABC):=T 1.889726e+02=T 90.00000=T Traj:=T positionsangstrom=T Step:=T 0=T Bead:=T pbc="F F F"
C      -41.76810000     -33.85330000     -72.29370000
C      -41.98340000     -32.68880000     -71.57160000
C      -42.56640000     -31.61760000     -72.33900000
C      -43.04220000     -31.79110000     -73.67690000
C      -42.83260000     -32.98960000     -74.29390000
C      -42.20390000     -34.04920000     -73.62810000
H      -41.40330000     -34.73870000     -71.80230000
H      -42.76470000     -30.65840000     -71.84240000
H      -43.13570000     -33.12280000     -75.30150000
H      -42.10680000     -34.89710000     -74.18880000
C      -43.76250000     -30.59480000     -74.30550000
H      -43.76600000     -30.70190000     -75.41700000
H      -43.28870000     -29.61940000     -74.05370000
C      -41.54550000     -32.51880000     -70.13970000
H      -40.92730000     -33.33710000     -69.68770000
H      -40.88860000     -31.58710000     -70.14340000
S      -45.49180000     -30.47890000     -73.60370000
S      -42.94600000     -32.18150000     -68.91610000
C      -46.11030000     -32.19740000     -73.26880000
H      -46.56050000     -32.60720000     -74.11840000
H      -45.32020000     -32.91230000     -73.06640000
C      -44.20060000     -33.38950000     -69.39240000
H      -43.97860000     -34.35940000     -68.84650000
H      -44.17260000     -33.55150000     -70.45160000
C      -45.58670000     -32.92500000     -68.86610000
H      -45.57180000     -32.75940000     -67.79490000
H      -45.91710000     -31.95580000     -69.29610000
C      -47.13340000     -32.21560000     -72.08410000
H      -48.00910000     -31.60350000     -72.30250000
H      -46.68900000     -31.58930000     -71.31610000
C      -47.54980000     -33.62810000     -71.62540000
C      -48.34320000     -34.36680000     -72.47960000
C      -47.17550000     -34.37470000     -70.44910000
H      -48.73260000     -33.96180000     -73.44680000
C      -47.82940000     -35.58420000     -70.39880000
C      -46.49370000     -34.09170000     -69.13570000
C      -46.72270000     -35.08290000     -68.25380000
S      -48.78080000     -35.93910000     -71.83450000
S      -47.76740000     -36.38320000     -68.81340000
H      -46.18270000     -35.27430000     -67.38710000
