40
Properties=species:S:1:pos:R:3 #=T CELL(abcABC):=T 1.889726e+02=T 90.00000=T Traj:=T positionsangstrom=T Step:=T 0=T Bead:=T pbc="F F F"
C      -44.19050000     -34.54530000     -67.73860000
C      -44.39160000     -34.85910000     -69.10440000
C      -43.85390000     -33.92600000     -70.02710000
C      -43.21930000     -32.72900000     -69.63970000
C      -43.14090000     -32.45500000     -68.30500000
C      -43.62760000     -33.31000000     -67.34220000
H      -44.38150000     -35.36300000     -66.96760000
H      -43.91720000     -34.08270000     -71.18310000
H      -42.60330000     -31.63110000     -68.01340000
H      -43.62440000     -33.04590000     -66.29910000
C      -42.54160000     -31.89830000     -70.76920000
H      -42.33710000     -32.49580000     -71.64690000
H      -41.46980000     -31.66010000     -70.44230000
C      -45.31730000     -35.92360000     -69.60500000
H      -45.29290000     -35.78530000     -70.70020000
H      -45.22570000     -36.96450000     -69.26780000
S      -43.35430000     -30.32780000     -71.34310000
S      -47.05070000     -35.56650000     -69.06560000
C      -45.18260000     -30.66890000     -70.64880000
H      -45.09640000     -31.61700000     -70.17130000
H      -45.51510000     -29.94100000     -69.94300000
C      -47.37780000     -33.79580000     -69.54730000
H      -46.43770000     -33.23520000     -69.63890000
H      -47.88640000     -33.14760000     -68.78540000
C      -48.18080000     -33.58730000     -70.93300000
H      -49.14250000     -34.20030000     -70.86530000
H      -48.47770000     -32.56290000     -71.14190000
C      -46.17600000     -30.72000000     -71.88520000
H      -46.04440000     -29.69510000     -72.32860000
H      -47.21720000     -30.86870000     -71.57520000
C      -45.81970000     -31.92670000     -72.78730000
C      -44.94200000     -31.68640000     -73.80920000
C      -46.37210000     -33.27130000     -72.87050000
H      -44.48900000     -30.73570000     -74.00830000
C      -45.77020000     -33.97010000     -73.93930000
C      -47.37130000     -34.03180000     -72.17210000
C      -47.58970000     -35.29300000     -72.74730000
S      -44.50880000     -33.12360000     -74.83680000
S      -46.42530000     -35.60760000     -74.07480000
H      -48.38750000     -35.95670000     -72.51640000
