40
Properties=species:S:1:pos:R:3 #=T CELL(abcABC):=T 1.889726e+02=T 90.00000=T Traj:=T positionsangstrom=T Step:=T 0=T Bead:=T pbc="F F F"
C      -41.47230000     -34.27840000     -71.91850000
C      -41.64950000     -33.07440000     -71.27490000
C      -42.15460000     -31.99890000     -71.98530000
C      -42.43490000     -32.12330000     -73.34630000
C      -42.29460000     -33.33430000     -74.02400000
C      -41.75780000     -34.43910000     -73.27390000
H      -40.94430000     -35.11820000     -71.41370000
H      -42.39260000     -31.08120000     -71.50650000
H      -42.53500000     -33.45770000     -75.03860000
H      -41.64070000     -35.39880000     -73.84640000
C      -42.95220000     -30.96950000     -74.13730000
H      -43.01670000     -31.11870000     -75.21130000
H      -42.32270000     -30.08540000     -74.08810000
C      -41.42110000     -33.11100000     -69.72270000
H      -41.09130000     -34.09440000     -69.47150000
H      -40.67910000     -32.36800000     -69.37780000
S      -44.66430000     -30.49010000     -73.55980000
S      -42.93270000     -32.92660000     -68.63270000
C      -45.57820000     -32.16620000     -73.25190000
H      -45.97520000     -32.61910000     -74.20820000
H      -44.81400000     -32.81850000     -72.80190000
C      -44.23790000     -33.79900000     -69.62030000
H      -44.27670000     -34.88930000     -69.56070000
H      -44.18090000     -33.60950000     -70.73210000
C      -45.61970000     -33.30200000     -69.09920000
H      -45.63090000     -33.30880000     -68.02080000
H      -45.67920000     -32.26700000     -69.40700000
C      -46.67180000     -31.99590000     -72.03190000
H      -47.20750000     -31.01500000     -72.24070000
H      -45.99280000     -31.78630000     -71.25350000
C      -47.64210000     -33.15580000     -71.80350000
C      -48.72920000     -33.44910000     -72.58930000
C      -47.56710000     -34.08700000     -70.70830000
H      -48.79500000     -33.01740000     -73.59600000
C      -48.62850000     -35.02550000     -70.64440000
C      -46.76440000     -34.12140000     -69.49140000
C      -47.31180000     -35.06050000     -68.66030000
S      -49.62540000     -34.88500000     -72.06880000
S      -48.66780000     -35.97990000     -69.17130000
H      -46.85290000     -35.23090000     -67.63050000
