40
Properties=species:S:1:pos:R:3 #=T CELL(abcABC):=T 1.889726e+02=T 90.00000=T Traj:=T positionsangstrom=T Step:=T 0=T Bead:=T pbc="F F F"
C      -41.64250000     -34.40300000     -72.15110000
C      -41.77700000     -33.23440000     -71.37130000
C      -42.24290000     -32.11790000     -71.99660000
C      -42.57330000     -32.08320000     -73.40840000
C      -42.49810000     -33.27280000     -74.15580000
C      -41.90890000     -34.37050000     -73.53260000
H      -41.02230000     -35.18490000     -71.75330000
H      -42.20160000     -31.13450000     -71.43260000
H      -42.83170000     -33.20220000     -75.20780000
H      -41.79320000     -35.25760000     -74.15370000
C      -43.28410000     -30.94250000     -74.08380000
H      -43.39200000     -31.12540000     -75.13160000
H      -42.62900000     -30.05770000     -73.98640000
C      -41.55490000     -33.26340000     -69.84820000
H      -41.33110000     -34.27380000     -69.53670000
H      -40.65510000     -32.68350000     -69.61480000
S      -44.93180000     -30.46500000     -73.47930000
S      -42.96300000     -32.39490000     -68.94560000
C      -45.46940000     -32.05870000     -72.75620000
H      -45.66240000     -32.88040000     -73.49900000
H      -44.63870000     -32.25340000     -72.00320000
C      -44.24990000     -33.67610000     -69.43150000
H      -44.02250000     -34.69670000     -69.01490000
H      -44.12850000     -33.80720000     -70.50360000
C      -45.65880000     -33.20170000     -68.99610000
H      -45.65710000     -33.10620000     -67.89530000
H      -45.70980000     -32.15520000     -69.34590000
C      -46.78560000     -31.91310000     -71.92080000
H      -47.44260000     -31.26130000     -72.38620000
H      -46.48520000     -31.53990000     -70.92300000
C      -47.55120000     -33.18780000     -71.69110000
C      -48.56420000     -33.60450000     -72.49830000
C      -47.48170000     -34.11300000     -70.56620000
H      -48.92700000     -33.07520000     -73.38660000
C      -48.33550000     -35.22810000     -70.67780000
C      -46.71450000     -34.17150000     -69.37510000
C      -47.16410000     -35.08930000     -68.47220000
S      -49.33410000     -35.14430000     -72.16500000
S      -48.40900000     -36.12460000     -69.15330000
H      -46.74640000     -35.20370000     -67.50220000
