40
Properties=species:S:1:pos:R:3 #=T CELL(abcABC):=T 1.889726e+02=T 90.00000=T Traj:=T positionsangstrom=T Step:=T 0=T Bead:=T pbc="F F F"
C      -41.08500000     -34.42660000     -71.83890000
C      -41.61130000     -33.29070000     -71.16980000
C      -42.25170000     -32.26970000     -71.85150000
C      -42.62360000     -32.48270000     -73.23380000
C      -42.38350000     -33.75990000     -73.80580000
C      -41.61870000     -34.70000000     -73.11030000
H      -40.66310000     -35.20550000     -71.22120000
H      -42.69900000     -31.48980000     -71.20690000
H      -42.79230000     -33.91790000     -74.85280000
H      -41.28580000     -35.60260000     -73.52610000
C      -43.02140000     -31.40390000     -74.20440000
H      -43.07080000     -31.80970000     -75.23150000
H      -42.31970000     -30.59810000     -74.14670000
C      -41.34490000     -33.25130000     -69.69220000
H      -40.85100000     -34.20540000     -69.37540000
H      -40.70510000     -32.50770000     -69.37330000
S      -44.49730000     -30.57320000     -73.49690000
S      -42.81690000     -33.15530000     -68.50200000
C      -45.83830000     -31.92430000     -73.30350000
H      -46.57880000     -31.69810000     -74.04040000
H      -45.60750000     -32.96070000     -73.52780000
C      -44.28930000     -33.92790000     -69.45930000
H      -44.20680000     -35.01930000     -69.33120000
H      -44.09070000     -33.73650000     -70.53090000
C      -45.66020000     -33.40980000     -69.00610000
H      -45.74800000     -33.33530000     -67.88840000
H      -45.56240000     -32.38180000     -69.35140000
C      -46.30700000     -31.94820000     -71.94090000
H      -46.56770000     -30.92010000     -71.56990000
H      -45.42080000     -32.35580000     -71.39250000
C      -47.52880000     -32.86450000     -71.82850000
C      -48.48060000     -33.13420000     -72.79230000
C      -47.74300000     -33.68680000     -70.66960000
H      -48.48990000     -32.67730000     -73.73890000
C      -48.82270000     -34.57270000     -70.75460000
C      -46.87120000     -34.10830000     -69.49480000
C      -47.43990000     -35.13690000     -68.80910000
S      -49.63640000     -34.40780000     -72.24900000
S      -48.94050000     -35.75720000     -69.45050000
H      -46.94300000     -35.58910000     -68.01490000
