40
Properties=species:S:1:pos:R:3 #=T CELL(abcABC):=T 1.889726e+02=T 90.00000=T Traj:=T positionsangstrom=T Step:=T 0=T Bead:=T pbc="F F F"
C      -41.49680000     -34.30430000     -72.28080000
C      -41.97330000     -33.17140000     -71.53710000
C      -42.50000000     -32.07110000     -72.27560000
C      -42.87080000     -32.20490000     -73.63330000
C      -42.56050000     -33.36230000     -74.30200000
C      -41.81140000     -34.34940000     -73.60630000
H      -41.05730000     -35.13730000     -71.74450000
H      -42.63940000     -31.07900000     -71.82300000
H      -42.75290000     -33.53590000     -75.32610000
H      -41.41540000     -35.19120000     -74.16400000
C      -43.59140000     -30.99620000     -74.16770000
H      -43.99440000     -31.35310000     -75.12980000
H      -43.01080000     -30.07830000     -74.33140000
C      -41.73070000     -33.05660000     -70.03770000
H      -41.54330000     -34.09160000     -69.71320000
H      -40.77070000     -32.52910000     -69.78310000
S      -44.86370000     -30.45920000     -73.02160000
S      -43.07770000     -32.36690000     -69.01710000
C      -45.76980000     -32.06530000     -72.81210000
H      -46.03070000     -32.39470000     -73.89000000
H      -45.02470000     -32.84360000     -72.50250000
C      -44.49300000     -33.43720000     -69.41990000
H      -44.37050000     -34.46900000     -69.04810000
H      -44.55440000     -33.51070000     -70.51530000
C      -45.82600000     -32.85200000     -68.89790000
H      -45.69240000     -32.56110000     -67.80540000
H      -46.01710000     -31.92040000     -69.47890000
C      -46.94510000     -31.90820000     -71.91200000
H      -47.73190000     -31.14870000     -72.28480000
H      -46.56360000     -31.45870000     -71.00700000
C      -47.57520000     -33.22560000     -71.67090000
C      -48.29300000     -33.87820000     -72.62150000
C      -47.47170000     -33.98700000     -70.46480000
H      -48.53440000     -33.43900000     -73.59490000
C      -48.19470000     -35.17460000     -70.58060000
C      -46.81170000     -33.92340000     -69.16540000
C      -47.01310000     -35.04060000     -68.39760000
S      -48.92620000     -35.46240000     -72.13830000
S      -48.12770000     -36.21620000     -69.17490000
H      -46.48100000     -35.19740000     -67.45340000
