40
Properties=species:S:1:pos:R:3 #=T CELL(abcABC):=T 1.889726e+02=T 90.00000=T Traj:=T positionsangstrom=T Step:=T 0=T Bead:=T pbc="F F F"
C      -43.41110000     -35.01410000     -68.48420000
C      -44.21390000     -34.92850000     -69.65160000
C      -44.04920000     -33.82290000     -70.49690000
C      -43.10950000     -32.81910000     -70.20150000
C      -42.32900000     -32.94030000     -69.03570000
C      -42.37360000     -34.05850000     -68.26040000
H      -43.45560000     -35.88780000     -67.77410000
H      -44.45860000     -33.83050000     -71.50890000
H      -41.57980000     -32.16410000     -68.65740000
H      -41.66520000     -34.18040000     -67.38240000
C      -42.98100000     -31.55540000     -71.01940000
H      -43.10120000     -31.71170000     -72.06030000
H      -41.99340000     -31.18870000     -70.81870000
C      -45.11490000     -36.11430000     -69.93190000
H      -45.08180000     -36.29330000     -71.00160000
H      -44.63860000     -36.91870000     -69.48900000
S      -44.12730000     -30.13350000     -70.46710000
S      -46.82570000     -35.93460000     -69.32890000
C      -45.63640000     -30.99090000     -69.97090000
H      -45.38620000     -31.99560000     -69.56390000
H      -46.07810000     -30.44190000     -69.15760000
C      -47.46370000     -34.24990000     -69.74760000
H      -46.54260000     -33.66490000     -69.89400000
H      -48.03810000     -33.83890000     -68.86080000
C      -48.25380000     -34.17390000     -71.09730000
H      -49.11270000     -34.95300000     -71.03690000
H      -48.82570000     -33.17680000     -71.06420000
C      -46.76400000     -31.10340000     -71.03110000
H      -47.02240000     -30.09090000     -71.33520000
H      -47.71490000     -31.61880000     -70.67700000
C      -46.22150000     -31.78530000     -72.29440000
C      -45.45190000     -31.16560000     -73.21650000
C      -46.55840000     -33.13470000     -72.66480000
H      -45.07380000     -30.16110000     -73.23760000
C      -45.76470000     -33.52950000     -73.73670000
C      -47.34870000     -34.27350000     -72.29990000
C      -47.14450000     -35.43540000     -72.94830000
S      -44.73970000     -32.25620000     -74.45330000
S      -45.97880000     -35.19140000     -74.21700000
H      -47.62720000     -36.41640000     -72.71590000
