40
Properties=species:S:1:pos:R:3 #=T CELL(abcABC):=T 1.889726e+02=T 90.00000=T Traj:=T positionsangstrom=T Step:=T 0=T Bead:=T pbc="F F F"
C      -44.12330000     -35.80330000     -68.57910000
C      -43.19980000     -35.42980000     -69.60190000
C      -43.38860000     -35.84140000     -70.95250000
C      -44.53680000     -36.56090000     -71.25120000
C      -45.51630000     -36.87450000     -70.29390000
C      -45.29190000     -36.50600000     -68.92090000
H      -43.90290000     -35.46760000     -67.58900000
H      -42.59150000     -35.71110000     -71.71250000
H      -46.46190000     -37.40270000     -70.62670000
H      -45.94930000     -36.93140000     -68.12060000
C      -44.61450000     -37.10400000     -72.57910000
H      -45.59720000     -37.55680000     -72.81060000
H      -43.79450000     -37.77090000     -72.73060000
C      -41.99970000     -34.55630000     -69.22890000
H      -41.51820000     -35.10110000     -68.37860000
H      -41.31570000     -34.36430000     -70.10670000
S      -44.28410000     -35.92610000     -74.06070000
S      -42.42940000     -32.93690000     -68.51760000
C      -45.76950000     -34.82890000     -73.84570000
H      -45.60550000     -34.15420000     -74.71400000
H      -46.75950000     -35.26120000     -74.04590000
C      -43.46510000     -31.88340000     -69.78870000
H      -43.00580000     -31.91400000     -70.73110000
H      -43.25420000     -30.85430000     -69.49750000
C      -44.95540000     -32.21480000     -69.77690000
H      -45.14420000     -33.19170000     -70.18630000
H      -45.31970000     -32.26530000     -68.70880000
C      -45.69530000     -33.96750000     -72.55030000
H      -44.74990000     -33.56870000     -72.50430000
H      -45.82500000     -34.59680000     -71.61720000
C      -46.65790000     -32.84590000     -72.60240000
C      -47.75360000     -32.73600000     -73.42270000
C      -46.55420000     -31.63350000     -71.80670000
H      -48.04460000     -33.47820000     -74.17960000
C      -47.44300000     -30.66350000     -72.22340000
C      -45.79740000     -31.25830000     -70.62670000
C      -46.09650000     -29.95930000     -70.16680000
S      -48.58740000     -31.17780000     -73.47290000
S      -47.27260000     -29.24470000     -71.26220000
H      -45.72120000     -29.45980000     -69.28500000
