40
Properties=species:S:1:pos:R:3 #=T CELL(abcABC):=T 1.889726e+02=T 90.00000=T Traj:=T positionsangstrom=T Step:=T 0=T Bead:=T pbc="F F F"
C      -41.65460000     -34.41380000     -72.18830000
C      -41.89100000     -33.25700000     -71.44250000
C      -42.36520000     -32.10050000     -72.13700000
C      -42.74230000     -32.15780000     -73.49880000
C      -42.34450000     -33.32940000     -74.25970000
C      -41.86040000     -34.44000000     -73.59790000
H      -41.39930000     -35.31620000     -71.65740000
H      -42.80440000     -31.23680000     -71.52780000
H      -42.55560000     -33.33630000     -75.34380000
H      -41.66740000     -35.34030000     -74.08650000
C      -43.30790000     -30.95660000     -74.17870000
H      -43.56840000     -31.20880000     -75.20780000
H      -42.66300000     -30.06310000     -74.23680000
C      -41.52680000     -33.19430000     -69.98950000
H      -41.34550000     -34.19760000     -69.57310000
H      -40.69360000     -32.55000000     -69.75460000
S      -44.90640000     -30.35200000     -73.23160000
S      -42.90980000     -32.34380000     -69.07140000
C      -45.69350000     -31.96560000     -72.71570000
H      -45.85760000     -32.50890000     -73.58710000
H      -45.05940000     -32.57480000     -72.09400000
C      -44.29530000     -33.58360000     -69.39860000
H      -44.02650000     -34.51380000     -68.98560000
H      -44.44990000     -33.62190000     -70.51930000
C      -45.63520000     -33.03710000     -68.78370000
H      -45.60780000     -33.04580000     -67.73460000
H      -45.92280000     -31.99970000     -69.04290000
C      -47.01640000     -31.84250000     -71.97050000
H      -47.69970000     -31.14880000     -72.57830000
H      -46.99770000     -31.27440000     -71.04450000
C      -47.64980000     -33.22670000     -71.70770000
C      -48.41540000     -33.81710000     -72.68000000
C      -47.51820000     -34.04270000     -70.48580000
H      -48.51980000     -33.55460000     -73.71920000
C      -48.32380000     -35.19690000     -70.59170000
C      -46.83410000     -34.01680000     -69.19980000
C      -47.17370000     -35.11300000     -68.41180000
S      -49.15860000     -35.36960000     -72.10450000
S      -48.29300000     -36.15450000     -69.19390000
H      -46.78160000     -35.36480000     -67.45920000
