40
Properties=species:S:1:pos:R:3 #=T CELL(abcABC):=T 1.889726e+02=T 90.00000=T Traj:=T positionsangstrom=T Step:=T 0=T Bead:=T pbc="F F F"
C      -48.96800000     -34.16510000     -70.34010000
C      -48.33220000     -33.14730000     -69.62860000
C      -47.29170000     -33.37350000     -68.68070000
C      -46.86210000     -34.69290000     -68.56950000
C      -47.47350000     -35.75240000     -69.27360000
C      -48.50870000     -35.47570000     -70.16040000
H      -49.80980000     -34.03630000     -70.99040000
H      -46.78750000     -32.50470000     -68.23190000
H      -47.19690000     -36.77270000     -69.11850000
H      -49.03600000     -36.26740000     -70.68430000
C      -45.77590000     -34.97570000     -67.62920000
H      -45.50760000     -36.01350000     -67.57940000
H      -45.94230000     -34.61770000     -66.63240000
C      -48.78240000     -31.68750000     -69.72630000
H      -49.66500000     -31.74050000     -70.41200000
H      -49.02000000     -31.31680000     -68.71640000
S      -44.27690000     -33.96050000     -68.03130000
S      -47.51850000     -30.51140000     -70.44710000
C      -43.95960000     -34.56230000     -69.72830000
H      -43.40910000     -35.55070000     -69.90390000
H      -44.91510000     -34.61810000     -70.21130000
C      -46.80330000     -31.37430000     -71.99600000
H      -46.31710000     -30.46740000     -72.42800000
H      -47.59510000     -31.56770000     -72.71340000
C      -45.91990000     -32.53680000     -71.74420000
H      -45.23440000     -32.30370000     -70.95850000
H      -46.47360000     -33.33800000     -71.37060000
C      -42.91080000     -33.58900000     -70.39690000
H      -41.93610000     -33.85900000     -69.98270000
H      -43.10150000     -32.50670000     -70.31730000
C      -42.81010000     -33.71340000     -71.95050000
C      -41.61360000     -34.07650000     -72.48130000
C      -43.76010000     -33.31230000     -72.97790000
H      -40.77500000     -34.39380000     -71.87310000
C      -43.19850000     -33.47380000     -74.21160000
C      -45.15970000     -33.01210000     -72.95720000
C      -45.71380000     -32.88970000     -74.24370000
S      -41.48520000     -33.95960000     -74.29090000
S      -44.39620000     -33.13300000     -75.45880000
H      -46.71950000     -32.55210000     -74.45580000
