40
Properties=species:S:1:pos:R:3 #=T CELL(abcABC):=T 1.889726e+02=T 90.00000=T Traj:=T positionsangstrom=T Step:=T 0=T Bead:=T pbc="F F F"
C      -41.98290000     -35.25290000     -72.09610000
C      -41.98720000     -34.03800000     -71.40080000
C      -42.47690000     -32.89390000     -72.06220000
C      -42.86980000     -32.87300000     -73.41150000
C      -42.75870000     -34.11630000     -74.11490000
C      -42.37620000     -35.29660000     -73.41580000
H      -41.59070000     -36.15980000     -71.63960000
H      -42.36720000     -31.99060000     -71.51790000
H      -42.94380000     -34.13950000     -75.17850000
H      -42.21360000     -36.26400000     -73.87660000
C      -43.31680000     -31.65930000     -74.10470000
H      -44.08290000     -31.86650000     -74.85500000
H      -42.36430000     -31.25580000     -74.62190000
C      -41.48870000     -34.00290000     -69.94030000
H      -41.39190000     -35.00310000     -69.56480000
H      -40.49460000     -33.48480000     -69.93110000
S      -43.99700000     -30.31270000     -73.11010000
S      -42.82830000     -33.26910000     -68.89360000
C      -45.71540000     -30.83370000     -72.62160000
H      -46.21080000     -29.86240000     -72.36560000
H      -46.22090000     -31.19680000     -73.59870000
C      -44.32770000     -34.21300000     -69.43240000
H      -44.16890000     -35.26470000     -69.09470000
H      -44.30420000     -34.26510000     -70.53300000
C      -45.61510000     -33.68810000     -68.78370000
H      -45.54770000     -34.11680000     -67.71600000
H      -45.55120000     -32.61320000     -68.69960000
C      -45.76520000     -31.82210000     -71.45870000
H      -45.38260000     -31.24300000     -70.56340000
H      -44.94990000     -32.60740000     -71.61130000
C      -47.09620000     -32.58410000     -71.45700000
C      -48.09570000     -32.38450000     -72.36200000
C      -47.49330000     -33.62990000     -70.57520000
H      -48.16740000     -31.63340000     -73.19290000
C      -48.66110000     -34.29100000     -70.81580000
C      -46.84180000     -34.17960000     -69.38420000
C      -47.54990000     -35.17630000     -68.79670000
S      -49.40980000     -33.54420000     -72.20280000
S      -49.04400000     -35.69320000     -69.82340000
H      -47.27090000     -35.80340000     -67.93440000
