40
Properties=species:S:1:pos:R:3 #=T CELL(abcABC):=T 1.889726e+02=T 90.00000=T Traj:=T positionsangstrom=T Step:=T 0=T Bead:=T pbc="F F F"
C      -43.62890000     -35.55100000     -72.53480000
C      -42.92570000     -34.87830000     -71.57850000
C      -42.48700000     -33.56710000     -71.84550000
C      -42.72680000     -33.03270000     -73.15230000
C      -43.52010000     -33.77620000     -74.09880000
C      -44.02600000     -35.01560000     -73.77750000
H      -44.00880000     -36.54380000     -72.25890000
H      -42.01770000     -33.02970000     -71.00730000
H      -43.80800000     -33.27780000     -74.99090000
H      -44.72750000     -35.62590000     -74.33440000
C      -42.28810000     -31.66770000     -73.63690000
H      -42.39850000     -31.50880000     -74.66820000
H      -41.19000000     -31.60930000     -73.39070000
C      -42.55970000     -35.63530000     -70.29490000
H      -43.02970000     -36.63250000     -70.26880000
H      -41.47430000     -35.77650000     -70.37090000
S      -43.03680000     -30.41190000     -72.58480000
S      -42.93250000     -34.56800000     -68.87100000
C      -44.77380000     -30.92960000     -72.71090000
H      -45.45710000     -30.04710000     -72.83520000
H      -44.85800000     -31.44940000     -73.64250000
C      -44.76840000     -34.74270000     -68.91610000
H      -45.00590000     -35.57040000     -68.23600000
H      -44.89650000     -35.10730000     -69.97980000
C      -45.56150000     -33.40160000     -68.58810000
H      -45.54870000     -33.19760000     -67.46390000
H      -45.06530000     -32.55920000     -68.94430000
C      -45.19070000     -31.81520000     -71.56320000
H      -45.12290000     -31.20880000     -70.70790000
H      -44.41300000     -32.48900000     -71.39000000
C      -46.48020000     -32.48680000     -71.72730000
C      -47.31320000     -32.50330000     -72.84790000
C      -47.17690000     -33.16470000     -70.61980000
H      -47.16790000     -32.03660000     -73.83500000
C      -48.46740000     -33.51110000     -70.98950000
C      -46.96430000     -33.42320000     -69.20900000
C      -48.08070000     -34.07300000     -68.64260000
S      -48.86730000     -33.30700000     -72.64880000
S      -49.39980000     -34.33710000     -69.75470000
H      -48.16810000     -34.44690000     -67.63260000
