40
Properties=species:S:1:pos:R:3 #=T CELL(abcABC):=T 1.889726e+02=T 90.00000=T Traj:=T positionsangstrom=T Step:=T 0=T Bead:=T pbc="F F F"
C      -43.67870000     -35.69430000     -72.47460000
C      -42.79420000     -35.02140000     -71.60350000
C      -42.22890000     -33.87220000     -72.07090000
C      -42.57020000     -33.21720000     -73.25060000
C      -43.50130000     -33.82990000     -74.09740000
C      -43.97440000     -35.10780000     -73.69180000
H      -43.86840000     -36.74420000     -72.28050000
H      -41.33500000     -33.61170000     -71.51280000
H      -43.76230000     -33.45750000     -75.10320000
H      -44.57850000     -35.64070000     -74.41790000
C      -42.05500000     -31.84520000     -73.42480000
H      -42.05850000     -31.47010000     -74.47010000
H      -41.04900000     -31.68950000     -73.06040000
C      -42.38500000     -35.60140000     -70.32030000
H      -42.95620000     -36.49660000     -70.20700000
H      -41.31400000     -35.82300000     -70.20670000
S      -42.99550000     -30.43740000     -72.44570000
S      -43.04780000     -34.58960000     -68.88600000
C      -44.74510000     -30.94270000     -72.69060000
H      -45.34510000     -29.96000000     -72.68790000
H      -44.85200000     -31.37060000     -73.68670000
C      -44.91350000     -34.66800000     -69.29170000
H      -45.48620000     -35.48860000     -68.83710000
H      -45.15390000     -34.85570000     -70.30200000
C      -45.60200000     -33.38420000     -68.70140000
H      -45.58010000     -33.45570000     -67.62530000
H      -45.02610000     -32.46690000     -68.98070000
C      -45.26470000     -31.77910000     -71.51640000
H      -45.33640000     -31.15380000     -70.58410000
H      -44.59300000     -32.69220000     -71.25310000
C      -46.56830000     -32.44270000     -71.71810000
C      -47.29810000     -32.42160000     -72.91190000
C      -47.32960000     -33.08590000     -70.61690000
H      -47.09920000     -31.75440000     -73.73230000
C      -48.58180000     -33.53770000     -71.03100000
C      -46.95930000     -33.41690000     -69.30630000
C      -48.03400000     -33.97370000     -68.57560000
S      -48.94200000     -33.17900000     -72.70710000
S      -49.45150000     -34.16400000     -69.59600000
H      -48.01480000     -34.12360000     -67.47900000
