40
Properties=species:S:1:pos:R:3 #=T CELL(abcABC):=T 1.889726e+02=T 90.00000=T Traj:=T positionsangstrom=T Step:=T 0=T Bead:=T pbc="F F F"
C      -48.58540000     -34.13190000     -71.12350000
C      -48.43720000     -33.34980000     -69.95750000
C      -47.61150000     -33.89430000     -68.94110000
C      -46.93100000     -35.08810000     -69.05540000
C      -47.07140000     -35.82280000     -70.26500000
C      -47.86940000     -35.30790000     -71.30570000
H      -49.19380000     -33.81050000     -71.98900000
H      -47.35460000     -33.21030000     -68.19100000
H      -46.45190000     -36.71620000     -70.41280000
H      -47.89520000     -35.80180000     -72.25800000
C      -46.05470000     -35.46140000     -67.90410000
H      -45.53130000     -36.43950000     -67.99200000
H      -46.55540000     -35.44160000     -66.97990000
C      -49.02460000     -31.96630000     -70.04350000
H      -49.66080000     -31.91540000     -70.96980000
H      -49.45680000     -31.69260000     -69.07940000
S      -44.66120000     -34.22550000     -67.88560000
S      -47.89180000     -30.50670000     -70.47420000
C      -43.88430000     -34.52000000     -69.53660000
H      -43.11720000     -35.34900000     -69.60020000
H      -44.68630000     -34.88780000     -70.23120000
C      -46.93540000     -31.05970000     -71.94790000
H      -46.79380000     -30.16540000     -72.54390000
H      -47.54870000     -31.74130000     -72.57950000
C      -45.57620000     -31.63980000     -71.56650000
H      -45.02400000     -30.88680000     -71.05450000
H      -45.74500000     -32.43980000     -70.80440000
C      -43.21280000     -33.28340000     -70.09360000
H      -42.34520000     -33.01790000     -69.54250000
H      -43.94430000     -32.53660000     -70.05940000
C      -42.81450000     -33.64460000     -71.55070000
C      -41.70080000     -34.35770000     -72.00200000
C      -43.62300000     -33.08810000     -72.66500000
H      -41.01230000     -34.90360000     -71.33520000
C      -43.18570000     -33.59750000     -73.92260000
C      -44.76380000     -32.22890000     -72.75740000
C      -45.12640000     -32.08190000     -74.05680000
S      -41.64440000     -34.45720000     -73.75990000
S      -44.05390000     -32.92030000     -75.25050000
H      -45.95650000     -31.45040000     -74.43410000
