40
Properties=species:S:1:pos:R:3 #=T CELL(abcABC):=T 1.889726e+02=T 90.00000=T Traj:=T positionsangstrom=T Step:=T 0=T Bead:=T pbc="F F F"
C      -48.39750000     -34.13200000     -71.33480000
C      -48.39500000     -33.41400000     -70.16640000
C      -47.59850000     -33.74850000     -69.07670000
C      -46.93360000     -34.96330000     -69.02680000
C      -47.17120000     -35.83130000     -70.11690000
C      -47.85630000     -35.42790000     -71.26670000
H      -48.94230000     -33.62840000     -72.09140000
H      -47.64480000     -33.12610000     -68.19200000
H      -46.95810000     -36.90220000     -70.11530000
H      -47.88850000     -36.08070000     -72.13200000
C      -45.99800000     -35.39460000     -67.82860000
H      -45.72860000     -36.43760000     -67.87440000
H      -46.56580000     -35.00330000     -66.95390000
C      -49.11630000     -32.03360000     -70.12890000
H      -50.04930000     -32.02030000     -70.74040000
H      -49.50950000     -31.94740000     -69.15940000
S      -44.55880000     -34.31730000     -67.84350000
S      -47.93410000     -30.63870000     -70.49790000
C      -43.91630000     -34.48130000     -69.53410000
H      -43.40380000     -35.46730000     -69.60990000
H      -44.75060000     -34.48690000     -70.17840000
C      -46.98360000     -31.14980000     -72.00600000
H      -46.86760000     -30.29330000     -72.68390000
H      -47.56730000     -31.89900000     -72.53920000
C      -45.65480000     -31.74380000     -71.60710000
H      -45.07920000     -31.03060000     -70.93990000
H      -45.89810000     -32.59800000     -70.98400000
C      -43.01380000     -33.37710000     -70.02650000
H      -42.02360000     -33.51920000     -69.48920000
H      -43.32850000     -32.31040000     -69.88650000
C      -42.78520000     -33.56520000     -71.51540000
C      -41.73980000     -34.35420000     -72.03030000
C      -43.58370000     -32.92020000     -72.59760000
H      -40.97410000     -34.66920000     -71.29480000
C      -43.12220000     -33.41540000     -73.85340000
C      -44.75280000     -32.19600000     -72.77330000
C      -45.15170000     -32.03210000     -74.07250000
S      -41.78650000     -34.49720000     -73.72960000
S      -44.03600000     -32.77350000     -75.22150000
H      -45.88940000     -31.35940000     -74.47520000
