40
Properties=species:S:1:pos:R:3 #=T CELL(abcABC):=T 1.889726e+02=T 90.00000=T Traj:=T positionsangstrom=T Step:=T 0=T Bead:=T pbc="F F F"
C      -48.58600000     -34.12940000     -71.24620000
C      -48.41380000     -33.24620000     -70.20230000
C      -47.66190000     -33.63200000     -69.08040000
C      -47.02380000     -34.85770000     -69.11680000
C      -47.17270000     -35.74890000     -70.17210000
C      -47.95240000     -35.38930000     -71.22960000
H      -49.23870000     -34.04070000     -72.09950000
H      -47.57400000     -33.00840000     -68.18680000
H      -46.67870000     -36.69190000     -70.07840000
H      -48.19550000     -36.08780000     -72.02320000
C      -46.13790000     -35.38820000     -68.04070000
H      -45.96650000     -36.36310000     -68.25490000
H      -46.58090000     -35.21920000     -67.03530000
C      -49.08350000     -31.91570000     -70.30140000
H      -49.81180000     -31.95690000     -71.13670000
H      -49.65830000     -31.74180000     -69.31980000
S      -44.49420000     -34.48670000     -67.87980000
S      -47.84860000     -30.56020000     -70.36470000
C      -43.95630000     -34.41050000     -69.65480000
H      -43.23890000     -35.28940000     -69.80400000
H      -44.76370000     -34.51650000     -70.37240000
C      -46.85210000     -31.00490000     -71.92130000
H      -46.51420000     -30.08190000     -72.34680000
H      -47.47240000     -31.44340000     -72.63850000
C      -45.61120000     -31.83900000     -71.51380000
H      -45.00530000     -31.20700000     -70.76850000
H      -45.97400000     -32.59890000     -70.86520000
C      -43.10570000     -33.20380000     -70.09860000
H      -42.25980000     -33.06010000     -69.44860000
H      -43.68780000     -32.26240000     -69.96320000
C      -42.72000000     -33.42260000     -71.50790000
C      -41.63550000     -34.16390000     -71.96440000
C      -43.57790000     -33.07090000     -72.64210000
H      -40.67670000     -34.31640000     -71.53120000
C      -43.09920000     -33.50070000     -73.88660000
C      -44.87390000     -32.37930000     -72.70610000
C      -45.21590000     -32.30930000     -74.00710000
S      -41.61340000     -34.35750000     -73.72700000
S      -44.15900000     -33.07000000     -75.17010000
H      -46.06740000     -31.78060000     -74.33880000
