40
Properties=species:S:1:pos:R:3 #=T CELL(abcABC):=T 1.889726e+02=T 90.00000=T Traj:=T positionsangstrom=T Step:=T 0=T Bead:=T pbc="F F F"
C      -48.71400000     -34.75540000     -71.23120000
C      -48.52870000     -33.55690000     -70.51020000
C      -47.86090000     -33.60140000     -69.23710000
C      -47.36110000     -34.83400000     -68.77330000
C      -47.53390000     -35.99180000     -69.50790000
C      -48.19350000     -35.90280000     -70.74250000
H      -49.36180000     -34.80850000     -72.05270000
H      -47.73110000     -32.71910000     -68.62250000
H      -47.06620000     -36.95910000     -69.08570000
H      -48.44030000     -36.78980000     -71.33900000
C      -46.43240000     -34.84000000     -67.59860000
H      -46.44720000     -35.77200000     -67.14920000
H      -46.83380000     -34.26970000     -66.73090000
C      -48.96600000     -32.21880000     -71.02130000
H      -49.10150000     -32.17860000     -72.09730000
H      -49.91230000     -31.89110000     -70.53130000
S      -44.72360000     -34.27790000     -67.92780000
S      -47.95200000     -30.71240000     -70.60480000
C      -44.38660000     -34.39540000     -69.69560000
H      -44.44200000     -35.54930000     -69.92960000
H      -45.21600000     -33.93750000     -70.23220000
C      -46.53860000     -30.75730000     -71.75700000
H      -45.84270000     -29.91370000     -71.63310000
H      -46.89980000     -30.76150000     -72.78700000
C      -45.59830000     -31.96630000     -71.60810000
H      -45.18500000     -31.83180000     -70.60190000
H      -46.24280000     -32.83360000     -71.45520000
C      -43.08910000     -33.68520000     -70.07350000
H      -42.10580000     -33.94410000     -69.58860000
H      -43.16700000     -32.66140000     -69.74660000
C      -42.77450000     -33.67700000     -71.51890000
C      -41.67490000     -34.39490000     -71.99320000
C      -43.45710000     -33.07700000     -72.62910000
H      -41.02140000     -34.98740000     -71.39450000
C      -42.90270000     -33.34510000     -73.89220000
C      -44.63740000     -32.25700000     -72.75430000
C      -44.90380000     -31.91820000     -74.05670000
S      -41.41860000     -34.35170000     -73.71880000
S      -43.64840000     -32.50040000     -75.17810000
H      -45.78720000     -31.34900000     -74.31310000
