40
Properties=species:S:1:pos:R:3 #=T CELL(abcABC):=T 1.889726e+02=T 90.00000=T Traj:=T positionsangstrom=T Step:=T 0=T Bead:=T pbc="F F F"
C      -44.42690000     -29.23770000     -73.21200000
C      -44.65200000     -30.62020000     -73.50300000
C      -43.69060000     -31.56990000     -73.06190000
C      -42.58530000     -31.19700000     -72.30260000
C      -42.46230000     -29.86290000     -71.92030000
C      -43.34730000     -28.90210000     -72.44480000
H      -45.21330000     -28.49400000     -73.42920000
H      -43.85190000     -32.63780000     -73.34670000
H      -41.59020000     -29.55370000     -71.36990000
H      -43.16960000     -27.87330000     -72.24600000
C      -41.59960000     -32.28040000     -71.95800000
H      -40.56510000     -32.21840000     -72.30070000
H      -42.01540000     -33.16780000     -72.43810000
C      -45.76790000     -30.93190000     -74.37870000
H      -45.86140000     -30.08650000     -75.02090000
H      -45.75090000     -31.90820000     -74.89050000
S      -41.61730000     -32.77140000     -70.16510000
S      -47.42310000     -31.02620000     -73.48720000
C      -43.38820000     -33.45140000     -69.94580000
H      -43.32760000     -33.70360000     -68.90370000
H      -44.08880000     -32.66830000     -69.99350000
C      -47.71920000     -32.80760000     -72.99430000
H      -47.35110000     -33.44400000     -73.86800000
H      -48.78650000     -32.95150000     -72.69750000
C      -46.82550000     -33.22920000     -71.83150000
H      -45.84530000     -33.31090000     -72.18660000
H      -46.82300000     -32.40670000     -71.05560000
C      -43.82110000     -34.65990000     -70.74150000
H      -42.96330000     -35.38210000     -70.82260000
H      -44.01800000     -34.51510000     -71.80980000
C      -44.99930000     -35.56410000     -70.21210000
C      -44.68060000     -36.70330000     -69.50570000
C      -46.39630000     -35.27360000     -70.37070000
H      -43.71040000     -37.09860000     -69.33250000
C      -47.12150000     -36.33680000     -69.70310000
C      -47.28180000     -34.38590000     -71.02580000
C      -48.62700000     -34.66730000     -70.74030000
S      -46.01720000     -37.53910000     -68.93460000
S      -48.81950000     -36.11120000     -69.76060000
H      -49.46060000     -34.19730000     -71.18700000
