40
Properties=species:S:1:pos:R:3 #=T CELL(abcABC):=T 1.889726e+02=T 90.00000=T Traj:=T positionsangstrom=T Step:=T 0=T Bead:=T pbc="F F F"
C      -44.17100000     -29.54090000     -73.55310000
C      -44.45850000     -30.88010000     -73.62920000
C      -43.64410000     -31.76950000     -72.96840000
C      -42.46570000     -31.38780000     -72.33680000
C      -42.16140000     -30.01540000     -72.21710000
C      -42.94580000     -29.11000000     -72.90530000
H      -44.85830000     -28.81210000     -73.93660000
H      -43.89040000     -32.86150000     -73.04880000
H      -41.16640000     -29.73720000     -71.85000000
H      -42.80920000     -28.03800000     -72.84980000
C      -41.58950000     -32.48750000     -71.83070000
H      -40.55420000     -32.12930000     -71.75120000
H      -41.76980000     -33.40800000     -72.42970000
C      -45.61220000     -31.33240000     -74.46950000
H      -45.62660000     -30.71240000     -75.33710000
H      -45.61200000     -32.39330000     -74.77470000
S      -41.82800000     -32.86610000     -70.00200000
S      -47.37470000     -30.97810000     -73.72310000
C      -43.55300000     -33.58770000     -69.84190000
H      -43.69870000     -33.82880000     -68.79790000
H      -44.31420000     -32.84650000     -70.15420000
C      -47.77760000     -32.55100000     -72.85030000
H      -47.91410000     -33.36470000     -73.55380000
H      -48.69740000     -32.35070000     -72.40260000
C      -46.75050000     -33.03090000     -71.81380000
H      -45.75030000     -33.32640000     -72.23260000
H      -46.55870000     -32.19430000     -71.14920000
C      -43.80160000     -34.81410000     -70.76600000
H      -42.81850000     -35.31650000     -70.78680000
H      -43.83960000     -34.46450000     -71.88090000
C      -45.00970000     -35.63620000     -70.27240000
C      -44.80060000     -36.68940000     -69.43630000
C      -46.43710000     -35.28080000     -70.39980000
H      -43.87080000     -37.18090000     -69.19460000
C      -47.19910000     -36.13710000     -69.62150000
C      -47.25390000     -34.27290000     -71.04120000
C      -48.56820000     -34.34810000     -70.62570000
S      -46.31660000     -37.43900000     -68.81220000
S      -48.84570000     -35.68880000     -69.53780000
H      -49.33810000     -33.60270000     -70.76990000
