40
Properties=species:S:1:pos:R:3 #=T CELL(abcABC):=T 1.889726e+02=T 90.00000=T Traj:=T positionsangstrom=T Step:=T 0=T Bead:=T pbc="F F F"
C      -44.02090000     -35.51470000     -68.82820000
C      -43.11530000     -35.11580000     -69.82230000
C      -43.18350000     -35.82310000     -71.06030000
C      -44.19310000     -36.76830000     -71.31760000
C      -45.06940000     -37.19420000     -70.26110000
C      -44.93050000     -36.57190000     -68.99840000
H      -43.95960000     -35.13370000     -67.81270000
H      -42.56990000     -35.50550000     -71.94100000
H      -45.88540000     -37.95040000     -70.42860000
H      -45.47640000     -36.95980000     -68.17440000
C      -44.38520000     -37.37730000     -72.69700000
H      -45.22410000     -38.10270000     -72.60140000
H      -43.52560000     -37.82170000     -73.09140000
C      -41.95320000     -34.15770000     -69.47470000
H      -41.18220000     -34.61720000     -68.96630000
H      -41.46340000     -33.67980000     -70.36290000
S      -44.83750000     -36.17300000     -74.03440000
S      -42.44460000     -32.69380000     -68.42040000
C      -46.25500000     -35.25670000     -73.47390000
H      -46.73960000     -34.89960000     -74.36610000
H      -46.92950000     -35.89020000     -72.98350000
C      -44.11280000     -32.06480000     -68.78440000
H      -43.97090000     -31.01640000     -68.46590000
H      -44.83760000     -32.53750000     -68.19900000
C      -44.49410000     -32.11940000     -70.28410000
H      -43.65970000     -31.82460000     -70.91130000
H      -44.65960000     -33.19290000     -70.56110000
C      -45.86520000     -34.04100000     -72.55490000
H      -44.77000000     -33.91470000     -72.81290000
H      -45.70250000     -34.42560000     -71.52500000
C      -46.61940000     -32.79480000     -72.68470000
C      -47.58840000     -32.62410000     -73.62320000
C      -46.57750000     -31.61610000     -71.84660000
H      -47.94040000     -33.24360000     -74.44060000
C      -47.50950000     -30.60870000     -72.17760000
C      -45.73670000     -31.32280000     -70.69950000
C      -46.03140000     -30.03720000     -70.25190000
S      -48.37840000     -31.01190000     -73.57440000
S      -47.38630000     -29.24320000     -71.06340000
H      -45.51610000     -29.47310000     -69.50620000
