40
Properties=species:S:1:pos:R:3 #=T CELL(abcABC):=T 1.889726e+02=T 90.00000=T Traj:=T positionsangstrom=T Step:=T 0=T Bead:=T pbc="F F F"
C      -44.10430000     -29.78180000     -73.64590000
C      -44.36670000     -31.12720000     -73.90000000
C      -43.52980000     -32.10190000     -73.32020000
C      -42.41160000     -31.85660000     -72.61980000
C      -42.20440000     -30.46820000     -72.30990000
C      -42.99850000     -29.45520000     -72.81140000
H      -44.77020000     -29.05100000     -74.10170000
H      -43.76980000     -33.11280000     -73.57380000
H      -41.51590000     -30.14110000     -71.58690000
H      -42.72570000     -28.39550000     -72.60450000
C      -41.44960000     -32.91310000     -72.06550000
H      -40.46060000     -32.85180000     -72.38650000
H      -41.90820000     -33.88640000     -72.45530000
C      -45.63790000     -31.45250000     -74.58050000
H      -45.61190000     -30.92790000     -75.52280000
H      -45.61990000     -32.49770000     -74.80520000
S      -41.50450000     -33.05990000     -70.20780000
S      -47.24880000     -31.01400000     -73.75280000
C      -43.39830000     -33.22400000     -69.97080000
H      -43.53760000     -33.34680000     -68.90690000
H      -43.84250000     -32.28480000     -70.36030000
C      -47.79260000     -32.40930000     -72.69900000
H      -48.43000000     -33.11890000     -73.23000000
H      -48.49150000     -31.94760000     -72.04200000
C      -46.74280000     -33.06630000     -71.93350000
H      -46.12400000     -33.63290000     -72.64150000
H      -46.15170000     -32.40870000     -71.25440000
C      -43.99630000     -34.50030000     -70.66240000
H      -43.19690000     -35.23120000     -70.84210000
H      -44.39580000     -34.22820000     -71.65130000
C      -45.12460000     -35.18520000     -69.81430000
C      -44.85540000     -36.24240000     -68.92530000
C      -46.53100000     -34.95980000     -70.06580000
H      -43.82580000     -36.63860000     -68.58210000
C      -47.33710000     -35.86410000     -69.38480000
C      -47.39290000     -34.13500000     -70.96650000
C      -48.73790000     -34.52770000     -70.91560000
S      -46.39020000     -36.98750000     -68.36480000
S      -49.04050000     -35.72430000     -69.71170000
H      -49.55050000     -34.04620000     -71.41520000
