40
Properties=species:S:1:pos:R:3 #=T CELL(abcABC):=T 1.889726e+02=T 90.00000=T Traj:=T positionsangstrom=T Step:=T 0=T Bead:=T pbc="F F F"
C      -44.47910000     -37.39740000     -71.80540000
C      -44.02000000     -36.39990000     -70.86900000
C      -43.13740000     -35.41760000     -71.18950000
C      -42.63060000     -35.37440000     -72.48980000
C      -43.06410000     -36.32120000     -73.46260000
C      -44.00490000     -37.35970000     -73.12230000
H      -45.11290000     -38.20930000     -71.45960000
H      -42.96740000     -34.62770000     -70.36420000
H      -42.74380000     -36.16270000     -74.48450000
H      -44.35330000     -38.07520000     -73.84280000
C      -41.86980000     -34.13360000     -73.02710000
H      -42.53800000     -33.68910000     -73.86320000
H      -40.96100000     -34.39470000     -73.52450000
C      -44.63570000     -36.51610000     -69.51880000
H      -44.35380000     -37.51560000     -69.06230000
H      -44.21230000     -35.78150000     -68.78360000
S      -41.50610000     -32.85610000     -71.75890000
S      -46.40500000     -36.68180000     -69.28550000
C      -42.80200000     -31.55250000     -72.05450000
H      -42.53970000     -30.73580000     -71.42380000
H      -42.85670000     -31.25770000     -73.07090000
C      -47.12670000     -35.38040000     -70.44130000
H      -48.14520000     -35.43040000     -70.30600000
H      -47.11430000     -35.84790000     -71.46510000
C      -46.48820000     -33.99340000     -70.27190000
H      -46.11310000     -33.94880000     -69.22510000
H      -45.60490000     -34.04040000     -71.01050000
C      -44.21160000     -32.03970000     -71.55480000
H      -44.07040000     -32.55520000     -70.56230000
H      -44.40550000     -32.88790000     -72.22390000
C      -45.35050000     -31.08390000     -71.57350000
C      -45.29530000     -29.73480000     -71.80000000
C      -46.69230000     -31.50730000     -71.25450000
H      -44.29390000     -29.17240000     -71.88020000
C      -47.60560000     -30.55100000     -71.33400000
C      -47.27660000     -32.82640000     -70.84540000
C      -48.66870000     -32.62380000     -70.70460000
S      -46.86310000     -28.95550000     -71.71470000
S      -49.20060000     -31.00410000     -70.85610000
H      -49.29500000     -33.38540000     -70.19690000
