40
Properties=species:S:1:pos:R:3 #=T CELL(abcABC):=T 1.889726e+02=T 90.00000=T Traj:=T positionsangstrom=T Step:=T 0=T Bead:=T pbc="F F F"
C      -43.97230000     -35.58810000     -68.18900000
C      -44.71700000     -34.45400000     -67.98810000
C      -46.10660000     -34.51160000     -68.26990000
C      -46.64720000     -35.68150000     -68.78600000
C      -45.90520000     -36.88090000     -68.91650000
C      -44.55180000     -36.81770000     -68.57400000
H      -42.89630000     -35.50210000     -68.05860000
H      -46.69510000     -33.59260000     -68.14970000
H      -46.25040000     -37.79940000     -69.42300000
H      -43.95920000     -37.73940000     -68.71860000
C      -48.07390000     -35.55570000     -69.10320000
H      -48.49700000     -34.57090000     -68.71880000
H      -48.63220000     -36.40670000     -68.75580000
C      -43.96770000     -33.18170000     -67.76140000
H      -44.58330000     -32.40370000     -67.32870000
H      -43.11980000     -33.33360000     -67.17050000
S      -48.53560000     -35.43140000     -70.93580000
S      -43.35850000     -32.40030000     -69.34680000
C      -47.16370000     -34.26760000     -71.36960000
H      -46.96390000     -33.67040000     -70.44730000
H      -46.21320000     -34.72910000     -71.74220000
C      -44.28980000     -30.80950000     -69.67920000
H      -43.54300000     -30.00660000     -69.82470000
H      -44.89450000     -30.60040000     -68.75430000
C      -45.21480000     -30.96920000     -70.84060000
H      -45.77370000     -31.88280000     -70.49380000
H      -45.96150000     -30.20260000     -70.90000000
C      -47.51240000     -33.20310000     -72.44400000
H      -47.93880000     -32.19680000     -72.09240000
H      -48.30950000     -33.68610000     -73.11280000
C      -46.31090000     -33.01070000     -73.39110000
C      -46.24310000     -33.80550000     -74.51960000
C      -45.15810000     -32.07620000     -73.23290000
H      -46.95250000     -34.50810000     -74.74260000
C      -44.43310000     -32.05040000     -74.36450000
C      -44.56850000     -31.21230000     -72.19400000
C      -43.49470000     -30.53330000     -72.61080000
S      -44.89170000     -33.30090000     -75.56340000
S      -43.12660000     -30.93350000     -74.24830000
H      -42.82890000     -29.94830000     -71.94440000
