40
Properties=species:S:1:pos:R:3 #=T CELL(abcABC):=T 1.889726e+02=T 90.00000=T Traj:=T positionsangstrom=T Step:=T 0=T Bead:=T pbc="F F F"
C      -45.08140000     -35.60590000     -72.92660000
C      -44.69690000     -35.99050000     -71.61960000
C      -43.52420000     -35.41430000     -71.07660000
C      -42.61330000     -34.69400000     -71.84260000
C      -42.97210000     -34.38730000     -73.19910000
C      -44.29280000     -34.67910000     -73.64030000
H      -46.01900000     -35.97360000     -73.26010000
H      -43.36420000     -35.62420000     -70.01450000
H      -42.23960000     -33.80340000     -73.89840000
H      -44.60120000     -34.28080000     -74.59730000
C      -41.28980000     -34.27100000     -71.35140000
H      -40.60610000     -34.09150000     -72.17200000
H      -40.94130000     -35.00180000     -70.59240000
C      -45.52910000     -36.98630000     -70.87100000
H      -46.43880000     -37.25700000     -71.42270000
H      -45.01830000     -37.92680000     -70.61700000
S      -41.35660000     -32.60660000     -70.45510000
S      -46.05180000     -36.63360000     -69.04870000
C      -42.69920000     -31.61690000     -71.20940000
H      -42.36640000     -30.56700000     -71.09940000
H      -42.75340000     -31.88460000     -72.35110000
C      -47.27840000     -35.26150000     -69.20050000
H      -47.77020000     -35.10640000     -68.30630000
H      -47.90870000     -35.49170000     -70.01530000
C      -46.51050000     -33.89000000     -69.47290000
H      -46.42050000     -33.31840000     -68.51290000
H      -45.50620000     -34.08680000     -69.76980000
C      -44.06360000     -31.95060000     -70.62240000
H      -44.10370000     -31.53350000     -69.64300000
H      -44.20440000     -33.07570000     -70.49870000
C      -45.23310000     -31.45160000     -71.41390000
C      -45.22860000     -30.40920000     -72.34750000
C      -46.58440000     -31.92430000     -71.24610000
H      -44.39890000     -29.82490000     -72.76800000
C      -47.54210000     -31.24830000     -72.05940000
C      -47.22980000     -33.04440000     -70.53450000
C      -48.53140000     -33.17600000     -70.90800000
S      -46.77680000     -30.06070000     -72.99690000
S      -49.14120000     -31.93280000     -71.99200000
H      -49.28300000     -33.82700000     -70.47090000
