40
Properties=species:S:1:pos:R:3 #=T CELL(abcABC):=T 1.889726e+02=T 90.00000=T Traj:=T positionsangstrom=T Step:=T 0=T Bead:=T pbc="F F F"
C      -45.04580000     -30.02670000     -73.39330000
C      -44.75610000     -31.29070000     -73.83410000
C      -43.56470000     -31.86480000     -73.42380000
C      -42.82420000     -31.29180000     -72.37870000
C      -43.15690000     -30.02510000     -71.89180000
C      -44.26150000     -29.37160000     -72.48850000
H      -45.95770000     -29.54430000     -73.84680000
H      -43.30550000     -32.82970000     -73.94420000
H      -42.64330000     -29.61190000     -71.06600000
H      -44.53180000     -28.42430000     -72.13440000
C      -41.59310000     -32.00240000     -71.84530000
H      -40.72010000     -31.32610000     -71.55990000
H      -41.17200000     -32.74760000     -72.55580000
C      -45.50490000     -31.88370000     -75.08120000
H      -45.69480000     -31.09920000     -75.83740000
H      -44.92540000     -32.65830000     -75.53100000
S      -41.81630000     -32.73220000     -70.13240000
S      -47.21240000     -32.54130000     -74.60090000
C      -43.54950000     -33.38000000     -69.97070000
H      -43.68190000     -33.74450000     -68.96160000
H      -44.33610000     -32.58710000     -70.11490000
C      -46.90910000     -33.44800000     -73.06110000
H      -46.03790000     -34.03870000     -73.11780000
H      -47.72930000     -34.22170000     -72.80760000
C      -46.67960000     -32.66030000     -71.64370000
H      -45.70850000     -32.17950000     -71.58460000
H      -47.52920000     -31.94040000     -71.67370000
C      -43.86600000     -34.53840000     -70.94380000
H      -42.92400000     -35.10570000     -70.95500000
H      -44.23750000     -34.25530000     -71.84320000
C      -44.89260000     -35.33360000     -70.21460000
C      -44.72460000     -36.54640000     -69.60350000
C      -46.20400000     -34.76450000     -69.96470000
H      -43.71010000     -37.02670000     -69.57740000
C      -46.98350000     -35.70760000     -69.29580000
C      -46.94680000     -33.68450000     -70.51950000
C      -48.27780000     -33.73790000     -70.06930000
S      -46.10000000     -37.07080000     -68.63540000
S      -48.63300000     -35.12140000     -69.04340000
H      -49.06510000     -33.17740000     -70.45630000
