40
Properties=species:S:1:pos:R:3 #=T CELL(abcABC):=T 1.889726e+02=T 90.00000=T Traj:=T positionsangstrom=T Step:=T 0=T Bead:=T pbc="F F F"
C      -44.41760000     -29.70450000     -73.73040000
C      -44.34500000     -31.06860000     -74.09610000
C      -43.42810000     -31.90690000     -73.43720000
C      -42.56180000     -31.45980000     -72.40040000
C      -42.70550000     -30.15490000     -71.95650000
C      -43.65140000     -29.30510000     -72.59950000
H      -45.20490000     -29.02040000     -74.09730000
H      -43.42660000     -33.02500000     -73.64010000
H      -42.12270000     -29.82190000     -71.07670000
H      -43.77090000     -28.31520000     -72.12190000
C      -41.47200000     -32.41890000     -71.85850000
H      -40.47920000     -31.94590000     -72.07380000
H      -41.54820000     -33.31890000     -72.42200000
C      -45.27980000     -31.72950000     -75.04600000
H      -45.33820000     -31.23810000     -76.03380000
H      -45.02730000     -32.79680000     -75.24820000
S      -41.58910000     -32.89850000     -69.99710000
S      -47.02100000     -31.74330000     -74.46060000
C      -43.33230000     -33.45490000     -69.63930000
H      -43.33360000     -33.59320000     -68.54680000
H      -44.03660000     -32.58360000     -69.87500000
C      -47.07490000     -33.19520000     -73.32040000
H      -46.47980000     -34.00710000     -73.72520000
H      -48.12460000     -33.58530000     -73.34880000
C      -46.77990000     -32.90460000     -71.79030000
H      -45.62300000     -32.81170000     -71.73720000
H      -47.16330000     -31.96420000     -71.40340000
C      -43.74300000     -34.69000000     -70.28720000
H      -43.11740000     -35.46000000     -70.17800000
H      -43.88410000     -34.34230000     -71.34500000
C      -45.06630000     -35.27190000     -69.76250000
C      -45.03140000     -36.31070000     -68.82180000
C      -46.55360000     -34.86070000     -69.99710000
H      -44.20960000     -36.85880000     -68.52770000
C      -47.36160000     -35.60390000     -69.18000000
C      -47.30420000     -34.03710000     -70.91650000
C      -48.60550000     -34.41440000     -70.96940000
S      -46.53710000     -36.94310000     -68.27200000
S      -49.04920000     -35.46120000     -69.62900000
H      -49.43200000     -34.05310000     -71.64540000
