40
Properties=species:S:1:pos:R:3 #=T CELL(abcABC):=T 1.889726e+02=T 90.00000=T Traj:=T positionsangstrom=T Step:=T 0=T Bead:=T pbc="F F F"
C      -45.23770000     -35.77310000     -72.61460000
C      -44.71120000     -36.27330000     -71.44740000
C      -43.49890000     -35.81800000     -70.92600000
C      -42.80510000     -34.83780000     -71.66690000
C      -43.22080000     -34.49890000     -73.00890000
C      -44.40980000     -35.00830000     -73.48480000
H      -46.18900000     -36.28020000     -72.94910000
H      -43.15170000     -36.15690000     -69.93090000
H      -42.58250000     -33.87870000     -73.57590000
H      -44.78050000     -34.78640000     -74.47190000
C      -41.53900000     -34.38560000     -71.10950000
H      -40.63490000     -34.89190000     -71.61200000
H      -41.52610000     -34.78570000     -70.09400000
C      -45.30490000     -37.39970000     -70.65500000
H      -46.16420000     -37.84660000     -71.16440000
H      -44.49380000     -38.12130000     -70.52570000
S      -41.22900000     -32.57860000     -70.90890000
S      -46.11920000     -36.68610000     -69.08580000
C      -42.68830000     -31.58570000     -71.31840000
H      -42.45560000     -30.52430000     -71.18210000
H      -42.83660000     -31.59460000     -72.33660000
C      -47.03440000     -35.35690000     -69.96380000
H      -48.11340000     -35.54000000     -69.70760000
H      -47.01270000     -35.57880000     -70.96560000
C      -46.60150000     -33.98390000     -69.59110000
H      -46.84510000     -33.69780000     -68.58020000
H      -45.51530000     -33.99650000     -69.66090000
C      -44.03310000     -31.96680000     -70.72220000
H      -44.04400000     -31.66580000     -69.63020000
H      -44.26810000     -32.99920000     -70.70350000
C      -45.19660000     -31.32870000     -71.43390000
C      -45.11080000     -30.24440000     -72.28860000
C      -46.54480000     -31.82300000     -71.25710000
H      -44.28470000     -29.71400000     -72.57550000
C      -47.47320000     -31.10100000     -72.06550000
C      -47.24280000     -32.85720000     -70.49080000
C      -48.56320000     -32.89980000     -70.72830000
S      -46.69510000     -29.87820000     -73.06960000
S      -49.15500000     -31.57040000     -71.71720000
H      -49.35830000     -33.57490000     -70.32200000
