40
Properties=species:S:1:pos:R:3 #=T CELL(abcABC):=T 1.889726e+02=T 90.00000=T Traj:=T positionsangstrom=T Step:=T 0=T Bead:=T pbc="F F F"
C      -45.17610000     -35.21820000     -72.55870000
C      -44.36690000     -35.74570000     -71.51090000
C      -43.13280000     -35.19210000     -71.24330000
C      -42.61560000     -34.12110000     -72.04880000
C      -43.41780000     -33.56230000     -73.01790000
C      -44.66640000     -34.14050000     -73.28410000
H      -46.13070000     -35.72230000     -72.68570000
H      -42.56050000     -35.54280000     -70.36830000
H      -43.08760000     -32.82360000     -73.80000000
H      -45.37420000     -33.66260000     -74.01860000
C      -41.31170000     -33.49970000     -71.59680000
H      -40.89510000     -32.69920000     -72.26940000
H      -40.50300000     -34.24810000     -71.39850000
C      -44.93260000     -36.94140000     -70.77510000
H      -45.61360000     -37.40200000     -71.43210000
H      -44.16060000     -37.61860000     -70.49370000
S      -41.49320000     -32.52560000     -70.03850000
S      -45.83700000     -36.63520000     -69.13000000
C      -42.99770000     -31.39650000     -70.57400000
H      -42.94320000     -30.49070000     -70.06630000
H      -42.87430000     -31.26770000     -71.68500000
C      -47.22130000     -35.49130000     -69.64380000
H      -48.16140000     -35.79700000     -69.18440000
H      -47.34550000     -35.59280000     -70.76780000
C      -47.02130000     -34.01700000     -69.35540000
H      -47.58350000     -33.70330000     -68.48550000
H      -45.95630000     -33.79160000     -69.22910000
C      -44.31730000     -32.09290000     -70.33550000
H      -44.73240000     -32.03210000     -69.32760000
H      -44.16150000     -33.15750000     -70.43060000
C      -45.30890000     -31.66520000     -71.32680000
C      -45.11090000     -30.71560000     -72.34870000
C      -46.69350000     -32.17390000     -71.27800000
H      -44.18900000     -30.16300000     -72.53610000
C      -47.43740000     -31.66380000     -72.33900000
C      -47.43920000     -33.17330000     -70.50590000
C      -48.78050000     -33.27400000     -70.94730000
S      -46.50320000     -30.60270000     -73.36330000
S      -49.04270000     -32.28530000     -72.32300000
H      -49.51620000     -33.87160000     -70.46100000
