40
Properties=species:S:1:pos:R:3 #=T CELL(abcABC):=T 1.889726e+02=T 90.00000=T Traj:=T positionsangstrom=T Step:=T 0=T Bead:=T pbc="F F F"
C      -43.83380000     -35.91320000     -68.59300000
C      -43.15270000     -35.32760000     -69.69200000
C      -43.40020000     -35.75700000     -70.99440000
C      -44.36830000     -36.74760000     -71.28680000
C      -45.04500000     -37.25740000     -70.21170000
C      -44.82760000     -36.83730000     -68.89780000
H      -43.54260000     -35.75300000     -67.56960000
H      -42.77690000     -35.39500000     -71.85660000
H      -45.89320000     -37.99290000     -70.44160000
H      -45.36960000     -37.29790000     -68.13090000
C      -44.40790000     -37.46550000     -72.64870000
H      -45.21980000     -38.22970000     -72.66060000
H      -43.43200000     -37.84120000     -72.81180000
C      -42.14210000     -34.29880000     -69.56400000
H      -41.20870000     -34.68360000     -69.13890000
H      -42.03760000     -33.66070000     -70.51150000
S      -44.90440000     -36.27270000     -73.99380000
S      -42.57960000     -32.86110000     -68.46760000
C      -46.08670000     -35.09370000     -73.28070000
H      -46.84100000     -35.15300000     -74.10160000
H      -46.62570000     -35.44490000     -72.35040000
C      -44.17360000     -32.31300000     -69.32580000
H      -44.88170000     -31.89270000     -68.59460000
H      -44.65170000     -33.22240000     -69.65910000
C      -44.02740000     -31.33790000     -70.50930000
H      -43.54550000     -30.41250000     -70.16970000
H      -43.34080000     -31.88360000     -71.21200000
C      -45.46250000     -33.72810000     -73.09160000
H      -44.80440000     -33.47260000     -73.94600000
H      -44.79760000     -33.65110000     -72.27450000
C      -46.47300000     -32.57140000     -72.91950000
C      -47.70130000     -32.58360000     -73.51280000
C      -46.33920000     -31.46700000     -71.96120000
H      -47.97730000     -33.34760000     -74.25920000
C      -47.45760000     -30.65220000     -72.05590000
C      -45.38620000     -30.90260000     -71.00110000
C      -45.86830000     -29.70180000     -70.48200000
S      -48.72650000     -31.25540000     -73.03530000
S      -47.44920000     -29.18480000     -71.07540000
H      -45.29700000     -29.01540000     -69.87170000
