40
Properties=species:S:1:pos:R:3 #=T CELL(abcABC):=T 1.889726e+02=T 90.00000=T Traj:=T positionsangstrom=T Step:=T 0=T Bead:=T pbc="F F F"
C      -44.82760000     -35.46810000     -72.61030000
C      -44.28200000     -35.71360000     -71.34190000
C      -43.10780000     -35.05710000     -71.04150000
C      -42.53690000     -34.02220000     -71.83540000
C      -43.21160000     -33.70100000     -73.01030000
C      -44.35700000     -34.39990000     -73.35500000
H      -45.76930000     -35.89850000     -72.93110000
H      -42.59630000     -35.32780000     -70.16000000
H      -42.74850000     -32.93380000     -73.65630000
H      -44.79380000     -34.18450000     -74.38630000
C      -41.31570000     -33.23970000     -71.50120000
H      -41.01880000     -32.63150000     -72.38730000
H      -40.45850000     -33.89930000     -71.30160000
C      -44.77750000     -36.89520000     -70.58910000
H      -45.49040000     -37.47440000     -71.26370000
H      -43.92610000     -37.45120000     -70.16290000
S      -41.64090000     -32.32430000     -69.92560000
S      -45.82100000     -36.58450000     -68.97750000
C      -43.05710000     -31.21990000     -70.30020000
H      -43.02380000     -30.46720000     -69.52520000
H      -42.93240000     -30.72740000     -71.27840000
C      -47.22730000     -35.62190000     -69.66760000
H      -48.07240000     -36.01900000     -69.12860000
H      -47.40710000     -36.12360000     -70.65640000
C      -46.86960000     -34.11790000     -69.73150000
H      -46.99970000     -33.66550000     -68.75760000
H      -45.76830000     -34.04140000     -69.99770000
C      -44.45230000     -31.93190000     -70.26750000
H      -44.86660000     -31.81920000     -69.19760000
H      -44.22850000     -33.02960000     -70.31390000
C      -45.46810000     -31.58600000     -71.25620000
C      -45.28010000     -30.59870000     -72.23870000
C      -46.73730000     -32.30770000     -71.46750000
H      -44.60070000     -29.78970000     -72.15680000
C      -47.49790000     -31.77380000     -72.47470000
C      -47.52660000     -33.27810000     -70.73920000
C      -48.75720000     -33.56960000     -71.31250000
S      -46.62940000     -30.54560000     -73.41070000
S      -49.08320000     -32.43320000     -72.53640000
H      -49.43330000     -34.24870000     -70.92590000
