40
Properties=species:S:1:pos:R:3 #=T CELL(abcABC):=T 1.889726e+02=T 90.00000=T Traj:=T positionsangstrom=T Step:=T 0=T Bead:=T pbc="F F F"
C      -44.67890000     -29.35210000     -70.86980000
C      -45.59410000     -30.23110000     -71.48610000
C      -46.57430000     -30.80980000     -70.70150000
C      -46.54930000     -30.55450000     -69.31250000
C      -45.62780000     -29.75950000     -68.69870000
C      -44.67460000     -29.07370000     -69.49550000
H      -43.88890000     -28.92940000     -71.52500000
H      -47.36330000     -31.37210000     -71.20020000
H      -45.78920000     -29.57010000     -67.59990000
H      -44.04070000     -28.38450000     -68.98870000
C      -47.60350000     -31.34100000     -68.34450000
H      -48.61020000     -31.45640000     -68.82650000
H      -47.72010000     -30.83860000     -67.41020000
C      -45.44310000     -30.35640000     -72.97240000
H      -46.33990000     -30.99570000     -73.31760000
H      -45.45320000     -29.39880000     -73.53120000
S      -47.08840000     -33.08290000     -67.85300000
S      -43.78240000     -31.04550000     -73.57790000
C      -47.25500000     -34.09360000     -69.42100000
H      -48.28620000     -34.52910000     -69.56150000
H      -47.02610000     -33.48300000     -70.24120000
C      -43.14100000     -32.05400000     -72.13210000
H      -42.77850000     -31.28770000     -71.48690000
H      -42.21220000     -32.67960000     -72.43660000
C      -44.08890000     -33.03040000     -71.57320000
H      -43.76250000     -33.18940000     -70.46930000
H      -45.06380000     -32.61780000     -71.49360000
C      -46.26970000     -35.25910000     -69.51440000
H      -46.53890000     -36.05370000     -68.84930000
H      -45.32100000     -34.83870000     -69.17630000
C      -45.94310000     -35.90320000     -70.81260000
C      -46.57180000     -37.13790000     -71.06790000
C      -44.96720000     -35.55730000     -71.82530000
H      -47.26910000     -37.58940000     -70.38220000
C      -44.92740000     -36.48690000     -72.85960000
C      -44.09560000     -34.42550000     -72.25740000
C      -43.29600000     -34.62970000     -73.39080000
S      -45.90840000     -37.87090000     -72.53620000
S      -43.64490000     -36.19640000     -74.12700000
H      -42.53560000     -33.98110000     -73.87780000
