40
Properties=species:S:1:pos:R:3 #=T CELL(abcABC):=T 1.889726e+02=T 90.00000=T Traj:=T positionsangstrom=T Step:=T 0=T Bead:=T pbc="F F F"
C      -44.81890000     -35.87210000     -72.21730000
C      -44.14680000     -36.22260000     -71.04330000
C      -43.11800000     -35.35140000     -70.68590000
C      -42.68480000     -34.27350000     -71.53520000
C      -43.39820000     -33.99270000     -72.67750000
C      -44.41960000     -34.83150000     -73.03860000
H      -45.66040000     -36.46500000     -72.54050000
H      -42.72770000     -35.59340000     -69.73110000
H      -43.08170000     -33.15370000     -73.25120000
H      -44.99210000     -34.58410000     -74.01350000
C      -41.44230000     -33.45990000     -71.15860000
H      -41.04560000     -33.00020000     -72.10180000
H      -40.74920000     -34.05500000     -70.67380000
C      -44.64800000     -37.30970000     -70.17050000
H      -45.27750000     -37.98760000     -70.75090000
H      -43.97840000     -37.95850000     -69.80720000
S      -41.85260000     -32.05960000     -70.03310000
S      -45.66440000     -36.69630000     -68.80200000
C      -43.14050000     -31.00570000     -70.90840000
H      -42.75540000     -29.93890000     -70.92340000
H      -43.24590000     -31.35210000     -71.98960000
C      -46.81150000     -35.57860000     -69.80380000
H      -47.79990000     -35.62640000     -69.36120000
H      -46.75110000     -35.95310000     -70.80350000
C      -46.38770000     -34.09790000     -69.85910000
H      -46.76230000     -33.52160000     -69.00450000
H      -45.30210000     -34.03870000     -69.75040000
C      -44.55020000     -31.13530000     -70.29670000
H      -44.58510000     -30.31980000     -69.55130000
H      -44.54520000     -32.07850000     -69.77350000
C      -45.67950000     -31.02310000     -71.37470000
C      -45.95180000     -29.91350000     -72.12240000
C      -46.66290000     -32.04210000     -71.63540000
H      -45.26290000     -29.07970000     -72.16520000
C      -47.58230000     -31.61260000     -72.59840000
C      -46.90730000     -33.40840000     -71.15150000
C      -48.06180000     -33.90060000     -71.74650000
S      -47.28380000     -30.07590000     -73.29730000
S      -48.73980000     -32.86060000     -72.99630000
H      -48.42460000     -34.93080000     -71.67640000
