40
Properties=species:S:1:pos:R:3 #=T CELL(abcABC):=T 1.889726e+02=T 90.00000=T Traj:=T positionsangstrom=T Step:=T 0=T Bead:=T pbc="F F F"
C      -45.22090000     -37.11410000     -70.24730000
C      -44.52580000     -36.01410000     -70.79200000
C      -44.77780000     -34.73970000     -70.21190000
C      -45.54240000     -34.57500000     -69.03030000
C      -46.26130000     -35.72980000     -68.59520000
C      -46.11380000     -36.97410000     -69.18090000
H      -45.14260000     -38.10830000     -70.66460000
H      -44.31000000     -33.84120000     -70.61910000
H      -46.97510000     -35.59080000     -67.80740000
H      -46.76960000     -37.77800000     -68.89570000
C      -45.74450000     -33.14490000     -68.38380000
H      -44.93470000     -32.51450000     -68.85300000
H      -45.60580000     -33.33200000     -67.29030000
C      -43.60480000     -36.14550000     -71.96540000
H      -42.87730000     -35.32520000     -72.03120000
H      -43.09560000     -37.06820000     -71.82370000
S      -47.41130000     -32.58710000     -68.59200000
S      -44.52780000     -36.24920000     -73.53890000
C      -48.02340000     -33.07030000     -70.31190000
H      -47.30560000     -33.91830000     -70.56690000
H      -48.98820000     -33.40540000     -70.21030000
C      -46.04400000     -35.17550000     -73.38470000
H      -46.12610000     -35.08050000     -72.27760000
H      -46.84610000     -35.93490000     -73.72140000
C      -46.00860000     -33.82790000     -74.05820000
H      -45.61020000     -33.95810000     -75.10140000
H      -47.02320000     -33.49490000     -74.10360000
C      -47.80670000     -32.04850000     -71.40140000
H      -48.46220000     -31.15820000     -71.25890000
H      -48.23210000     -32.51890000     -72.32790000
C      -46.35230000     -31.42410000     -71.42220000
C      -46.10770000     -30.28830000     -70.64520000
C      -45.24650000     -31.85760000     -72.34500000
H      -46.78860000     -29.81470000     -69.97420000
C      -44.08190000     -31.11850000     -71.97610000
C      -45.01140000     -32.79920000     -73.46050000
C      -43.64890000     -32.78890000     -73.82360000
S      -44.44900000     -29.73960000     -70.93890000
S      -42.72110000     -31.48090000     -72.97450000
H      -43.11800000     -33.49410000     -74.43520000
