40
Properties=species:S:1:pos:R:3 #=T CELL(abcABC):=T 1.889726e+02=T 90.00000=T Traj:=T positionsangstrom=T Step:=T 0=T Bead:=T pbc="F F F"
C      -45.67940000     -37.37690000     -70.52010000
C      -44.71790000     -36.39300000     -70.68340000
C      -44.75090000     -35.27310000     -69.81780000
C      -45.80100000     -34.94120000     -68.98520000
C      -46.78930000     -35.95570000     -68.93500000
C      -46.66220000     -37.18010000     -69.57210000
H      -45.61730000     -38.27820000     -71.09120000
H      -43.94370000     -34.52820000     -70.00840000
H      -47.68760000     -35.78390000     -68.28660000
H      -47.45730000     -37.89510000     -69.39340000
C      -45.89570000     -33.54440000     -68.36110000
H      -44.88220000     -33.12560000     -68.62130000
H      -45.94080000     -33.70690000     -67.26100000
C      -43.69610000     -36.45480000     -71.82600000
H      -42.78070000     -35.96000000     -71.50240000
H      -43.41350000     -37.51960000     -72.04530000
S      -47.48150000     -32.70800000     -68.65470000
S      -44.37200000     -35.79160000     -73.51460000
C      -47.83550000     -33.02760000     -70.50980000
H      -47.33270000     -33.89630000     -70.84810000
H      -48.92700000     -33.28160000     -70.61960000
C      -46.04410000     -34.93080000     -73.29620000
H      -46.16530000     -34.84680000     -72.20230000
H      -46.85530000     -35.54440000     -73.67420000
C      -46.01060000     -33.49070000     -73.99690000
H      -45.71170000     -33.68480000     -75.03410000
H      -46.95520000     -32.94480000     -74.04400000
C      -47.62520000     -31.81020000     -71.47890000
H      -48.43810000     -31.10070000     -71.28110000
H      -47.81010000     -32.07080000     -72.53630000
C      -46.22560000     -31.24100000     -71.43030000
C      -45.85920000     -30.40360000     -70.41120000
C      -45.13140000     -31.63780000     -72.28300000
H      -46.50250000     -29.95910000     -69.66240000
C      -43.96080000     -30.95420000     -71.99760000
C      -45.04820000     -32.49830000     -73.41900000
C      -43.79190000     -32.34750000     -74.03760000
S      -44.05890000     -30.02340000     -70.51100000
S      -42.61780000     -31.28010000     -73.20620000
H      -43.50040000     -32.83490000     -74.98450000
