40
Properties=species:S:1:pos:R:3 #=T CELL(abcABC):=T 1.889726e+02=T 90.00000=T Traj:=T positionsangstrom=T Step:=T 0=T Bead:=T pbc="F F F"
C      -44.58570000     -36.82350000     -70.00110000
C      -44.26710000     -35.72530000     -70.80470000
C      -44.56610000     -34.45460000     -70.31140000
C      -45.17540000     -34.28240000     -69.04450000
C      -45.49550000     -35.40250000     -68.29630000
C      -45.09840000     -36.68230000     -68.69500000
H      -44.43010000     -37.75490000     -70.55250000
H      -44.34640000     -33.59760000     -70.92290000
H      -46.04980000     -35.23950000     -67.36090000
H      -45.36470000     -37.60070000     -68.12120000
C      -45.75740000     -33.01290000     -68.63680000
H      -45.23870000     -32.33820000     -69.26800000
H      -45.52840000     -32.83050000     -67.62990000
C      -43.62340000     -35.86460000     -72.19330000
H      -43.08450000     -34.90270000     -72.42280000
H      -42.83690000     -36.65330000     -72.23510000
S      -47.66760000     -32.66910000     -68.68790000
S      -44.86350000     -36.29700000     -73.49820000
C      -47.83050000     -33.22520000     -70.46400000
H      -47.01090000     -33.96430000     -70.67570000
H      -48.79970000     -33.74830000     -70.54510000
C      -46.23540000     -35.20280000     -73.03170000
H      -46.14650000     -34.94900000     -72.00480000
H      -47.19400000     -35.66620000     -73.18050000
C      -46.13860000     -33.97210000     -73.96780000
H      -45.86890000     -34.29160000     -74.99470000
H      -47.09520000     -33.43460000     -73.97310000
C      -47.84080000     -32.14690000     -71.47890000
H      -48.64660000     -31.41650000     -71.28320000
H      -48.01220000     -32.53490000     -72.39980000
C      -46.48270000     -31.49320000     -71.56620000
C      -46.24780000     -30.34690000     -70.84660000
C      -45.42460000     -31.80080000     -72.48350000
H      -46.84240000     -29.92000000     -70.10700000
C      -44.27210000     -31.01940000     -72.29990000
C      -45.20700000     -32.98420000     -73.35030000
C      -43.88100000     -33.02270000     -73.68750000
S      -44.56870000     -29.90260000     -70.96630000
S      -42.83200000     -31.75460000     -72.92410000
H      -43.29740000     -33.83740000     -74.16720000
