40
Properties=species:S:1:pos:R:3 #=T CELL(abcABC):=T 1.889726e+02=T 90.00000=T Traj:=T positionsangstrom=T Step:=T 0=T Bead:=T pbc="F F F"
C      -43.95600000     -37.12320000     -71.41310000
C      -44.27310000     -36.45680000     -70.18780000
C      -43.44960000     -35.49150000     -69.71430000
C      -42.25900000     -35.17420000     -70.44830000
C      -42.06680000     -35.75830000     -71.68650000
C      -42.85380000     -36.79360000     -72.17030000
H      -44.53070000     -37.90000000     -71.82710000
H      -43.53390000     -34.93850000     -68.78520000
H      -41.18600000     -35.43340000     -72.17250000
H      -42.55070000     -37.32660000     -73.06260000
C      -41.47780000     -33.94190000     -70.07060000
H      -40.76920000     -33.65820000     -70.84090000
H      -40.95170000     -34.17170000     -69.12940000
C      -45.61060000     -36.82490000     -69.47400000
H      -46.30100000     -37.20840000     -70.23500000
H      -45.41380000     -37.46610000     -68.59400000
S      -42.45510000     -32.53260000     -69.59350000
S      -46.41350000     -35.41840000     -68.58050000
C      -43.40090000     -31.98650000     -71.08400000
H      -42.90920000     -31.18800000     -71.66280000
H      -43.57120000     -32.87750000     -71.73500000
C      -46.91490000     -34.09670000     -69.79820000
H      -46.53570000     -33.21940000     -69.42990000
H      -48.01680000     -34.10200000     -69.80600000
C      -46.48100000     -34.29940000     -71.21390000
H      -45.33880000     -34.26020000     -71.31090000
H      -46.72030000     -35.28710000     -71.52410000
C      -44.67090000     -31.31960000     -70.66860000
H      -44.40010000     -30.37560000     -70.28630000
H      -45.17890000     -32.00570000     -69.99480000
C      -45.68590000     -30.97040000     -71.79320000
C      -45.62370000     -29.78520000     -72.39640000
C      -46.68980000     -31.82960000     -72.29150000
H      -44.80330000     -29.10030000     -72.18510000
C      -47.46780000     -31.19810000     -73.21730000
C      -47.12740000     -33.23190000     -72.08290000
C      -48.13880000     -33.56500000     -72.97040000
S      -46.88480000     -29.59200000     -73.58420000
S      -48.68330000     -32.17680000     -73.94690000
H      -48.70460000     -34.49710000     -72.94530000
