40
Properties=species:S:1:pos:R:3 #=T CELL(abcABC):=T 1.889726e+02=T 90.00000=T Traj:=T positionsangstrom=T Step:=T 0=T Bead:=T pbc="F F F"
C      -43.94640000     -35.95150000     -68.48280000
C      -43.22580000     -35.56060000     -69.60250000
C      -43.52270000     -36.08190000     -70.87500000
C      -44.39440000     -37.11840000     -71.13260000
C      -44.98630000     -37.62140000     -69.94530000
C      -44.81240000     -37.03850000     -68.68190000
H      -43.73850000     -35.60590000     -67.48630000
H      -42.94460000     -35.58350000     -71.70110000
H      -45.73610000     -38.39290000     -70.13360000
H      -45.29810000     -37.41720000     -67.81020000
C      -44.85040000     -37.44790000     -72.56550000
H      -45.89810000     -37.48070000     -72.59720000
H      -44.42040000     -38.32700000     -72.91650000
C      -42.24920000     -34.39750000     -69.55470000
H      -41.33890000     -34.85450000     -69.20650000
H      -42.17750000     -34.13620000     -70.61600000
S      -44.46070000     -36.05780000     -73.75450000
S      -42.79590000     -32.86740000     -68.62720000
C      -45.91820000     -34.95790000     -73.56540000
H      -46.33860000     -34.74600000     -74.53750000
H      -46.65320000     -35.51110000     -72.91970000
C      -44.18040000     -32.34590000     -69.70640000
H      -44.97610000     -31.90580000     -69.02290000
H      -44.71890000     -33.21920000     -70.05000000
C      -43.90890000     -31.30910000     -70.87530000
H      -43.27050000     -30.63770000     -70.40930000
H      -43.40700000     -31.75130000     -71.74280000
C      -45.46100000     -33.60240000     -72.98510000
H      -44.69960000     -33.07530000     -73.57820000
H      -44.93530000     -33.83770000     -72.11730000
C      -46.55870000     -32.57520000     -72.79280000
C      -47.84900000     -32.64970000     -73.29030000
C      -46.37970000     -31.41450000     -71.93590000
H      -48.15160000     -33.44790000     -74.03570000
C      -47.46650000     -30.59350000     -71.99780000
C      -45.24910000     -30.65230000     -71.38660000
C      -45.65460000     -29.43170000     -70.91710000
S      -48.85440000     -31.28720000     -72.82450000
S      -47.32710000     -29.05820000     -71.21120000
H      -45.10280000     -28.60840000     -70.44560000
