40
Properties=species:S:1:pos:R:3 #=T CELL(abcABC):=T 1.889726e+02=T 90.00000=T Traj:=T positionsangstrom=T Step:=T 0=T Bead:=T pbc="F F F"
C      -45.35470000     -37.14680000     -71.09030000
C      -44.88620000     -35.86730000     -71.45400000
C      -45.13650000     -34.78710000     -70.55890000
C      -45.90590000     -34.92900000     -69.42320000
C      -46.40630000     -36.15540000     -69.06000000
C      -46.07210000     -37.24500000     -69.86820000
H      -45.19140000     -38.02690000     -71.72380000
H      -44.76340000     -33.85550000     -70.84170000
H      -47.07520000     -36.26420000     -68.27170000
H      -46.37260000     -38.28320000     -69.66720000
C      -46.08800000     -33.75250000     -68.52440000
H      -45.36070000     -32.94560000     -68.63570000
H      -46.10290000     -34.11660000     -67.51100000
C      -44.07930000     -35.66270000     -72.75790000
H      -43.23280000     -34.89620000     -72.79410000
H      -43.56020000     -36.62370000     -72.89600000
S      -47.73750000     -32.95830000     -68.69160000
S      -45.11120000     -35.53790000     -74.34170000
C      -47.99620000     -32.55540000     -70.51400000
H      -47.52780000     -33.33880000     -71.11580000
H      -49.10020000     -32.56880000     -70.69310000
C      -46.54060000     -34.44040000     -73.75010000
H      -46.85720000     -34.76260000     -72.71760000
H      -47.42720000     -34.51400000     -74.40480000
C      -46.15400000     -32.94670000     -73.78040000
H      -46.09280000     -32.73570000     -74.80900000
H      -46.99630000     -32.32280000     -73.48000000
C      -47.42030000     -31.23520000     -71.00650000
H      -47.95940000     -30.49170000     -70.37090000
H      -47.71150000     -31.02710000     -72.04920000
C      -45.92540000     -31.10960000     -70.91050000
C      -45.26540000     -30.50610000     -69.79200000
C      -44.98230000     -31.71430000     -71.81370000
H      -45.75420000     -29.94880000     -69.02170000
C      -43.68830000     -31.41990000     -71.42760000
C      -44.96560000     -32.49290000     -73.05520000
C      -43.69390000     -32.62140000     -73.61420000
S      -43.52760000     -30.48990000     -70.03900000
S      -42.49870000     -32.11360000     -72.42520000
H      -43.35630000     -33.22470000     -74.46880000
