40
Properties=species:S:1:pos:R:3 #=T CELL(abcABC):=T 1.889726e+02=T 90.00000=T Traj:=T positionsangstrom=T Step:=T 0=T Bead:=T pbc="F F F"
C      -45.49760000     -37.30060000     -70.82300000
C      -44.76380000     -36.11450000     -71.12370000
C      -44.97180000     -35.02890000     -70.24730000
C      -45.96050000     -35.02400000     -69.22580000
C      -46.71040000     -36.16260000     -69.02500000
C      -46.52010000     -37.25740000     -69.84320000
H      -45.29930000     -38.21380000     -71.39450000
H      -44.40550000     -34.09020000     -70.50320000
H      -47.47410000     -36.18730000     -68.22280000
H      -47.07210000     -38.20760000     -69.78330000
C      -46.15940000     -33.80080000     -68.45780000
H      -45.44410000     -33.02210000     -68.79580000
H      -46.06210000     -33.80720000     -67.36570000
C      -43.96770000     -36.03200000     -72.33760000
H      -43.31240000     -35.11470000     -72.26720000
H      -43.32550000     -36.91350000     -72.54200000
S      -47.84560000     -33.09950000     -68.78890000
S      -45.02490000     -35.82340000     -73.89500000
C      -47.88560000     -32.76200000     -70.59080000
H      -47.20800000     -33.44950000     -71.14400000
H      -48.88470000     -32.87630000     -70.96270000
C      -46.13810000     -34.54080000     -73.40730000
H      -46.05270000     -34.42240000     -72.35580000
H      -47.18800000     -34.81720000     -73.54770000
C      -45.98980000     -33.09350000     -73.93960000
H      -45.64850000     -33.22010000     -74.96220000
H      -46.90800000     -32.60470000     -73.85700000
C      -47.44620000     -31.35930000     -70.94740000
H      -47.74830000     -30.76170000     -70.09770000
H      -47.96460000     -31.08160000     -71.87730000
C      -45.92960000     -31.13430000     -71.02680000
C      -45.37120000     -30.42490000     -70.02540000
C      -44.95960000     -31.56210000     -72.05190000
H      -45.77150000     -30.16300000     -69.05740000
C      -43.65740000     -31.17870000     -71.69360000
C      -44.87340000     -32.29210000     -73.29710000
C      -43.66980000     -32.37920000     -73.87750000
S      -43.61820000     -30.24740000     -70.18690000
S      -42.45740000     -31.54530000     -72.86180000
H      -43.46670000     -32.96540000     -74.74110000
