40
Properties=species:S:1:pos:R:3 #=T CELL(abcABC):=T 1.889726e+02=T 90.00000=T Traj:=T positionsangstrom=T Step:=T 0=T Bead:=T pbc="F F F"
C      -46.16240000     -37.18630000     -72.10640000
C      -45.12150000     -36.21610000     -72.12570000
C      -44.99220000     -35.37480000     -71.02290000
C      -45.80470000     -35.44270000     -69.88620000
C      -46.78740000     -36.43870000     -69.87420000
C      -46.93600000     -37.29640000     -70.97430000
H      -46.29520000     -37.77840000     -72.97590000
H      -44.17700000     -34.63280000     -71.06080000
H      -47.35630000     -36.63490000     -69.00820000
H      -47.74660000     -38.02470000     -70.82550000
C      -45.61970000     -34.45250000     -68.74250000
H      -44.69500000     -33.84420000     -68.94860000
H      -45.36860000     -35.03250000     -67.81810000
C      -44.17900000     -35.89860000     -73.25710000
H      -43.29020000     -35.43840000     -72.91270000
H      -43.91310000     -36.78390000     -73.75440000
S      -47.14550000     -33.49650000     -68.46680000
S      -44.96150000     -34.65910000     -74.45970000
C      -47.75050000     -32.98920000     -70.19730000
H      -47.20140000     -33.67810000     -70.83590000
H      -48.83420000     -33.10090000     -70.28990000
C      -46.43820000     -33.98780000     -73.43080000
H      -46.41980000     -34.43030000     -72.38890000
H      -47.37020000     -34.29850000     -74.00210000
C      -46.38710000     -32.45470000     -73.49770000
H      -46.40150000     -32.14240000     -74.55440000
H      -47.13010000     -31.95050000     -72.94900000
C      -47.39540000     -31.52630000     -70.43040000
H      -47.96180000     -30.97480000     -69.64590000
H      -47.78760000     -31.21400000     -71.44480000
C      -45.93770000     -31.23930000     -70.37300000
C      -45.28650000     -30.82760000     -69.22950000
C      -44.95770000     -31.56620000     -71.46740000
H      -45.73350000     -30.64720000     -68.24470000
C      -43.65050000     -31.27570000     -71.11650000
C      -45.06220000     -31.93720000     -72.88660000
C      -43.86240000     -31.95790000     -73.51980000
S      -43.51360000     -30.90020000     -69.38990000
S      -42.55930000     -31.40200000     -72.50520000
H      -43.77940000     -32.12080000     -74.60950000
