40
Properties=species:S:1:pos:R:3 #=T CELL(abcABC):=T 1.889726e+02=T 90.00000=T Traj:=T positionsangstrom=T Step:=T 0=T Bead:=T pbc="F F F"
C      -45.83460000     -37.23070000     -71.68800000
C      -44.94340000     -36.09950000     -71.83200000
C      -44.89220000     -35.12880000     -70.85060000
C      -45.56330000     -35.42620000     -69.57270000
C      -46.39700000     -36.58320000     -69.46410000
C      -46.51000000     -37.50360000     -70.52570000
H      -45.97640000     -37.94780000     -72.50060000
H      -44.46190000     -34.10520000     -70.98030000
H      -46.97560000     -36.69620000     -68.58500000
H      -47.18130000     -38.33780000     -70.32350000
C      -45.71330000     -34.33780000     -68.60130000
H      -44.95000000     -33.56140000     -68.81750000
H      -45.66420000     -34.77090000     -67.52580000
C      -44.39470000     -35.85020000     -73.25400000
H      -43.59300000     -35.19580000     -73.32490000
H      -44.13540000     -36.83590000     -73.66240000
S      -47.44500000     -33.44960000     -68.64470000
S      -45.86450000     -35.35820000     -74.31640000
C      -47.95100000     -33.04110000     -70.32980000
H      -47.62670000     -33.87580000     -70.90810000
H      -49.05770000     -33.06010000     -70.36800000
C      -46.37000000     -33.88790000     -73.54940000
H      -46.25120000     -34.00930000     -72.41410000
H      -47.44820000     -33.73470000     -73.68430000
C      -45.65400000     -32.54280000     -73.98230000
H      -45.26080000     -32.67580000     -74.97340000
H      -46.42710000     -31.77410000     -74.06330000
C      -47.39740000     -31.74160000     -70.92890000
H      -47.99790000     -30.89270000     -70.48810000
H      -47.66900000     -31.71980000     -72.00870000
C      -45.90900000     -31.41280000     -70.74590000
C      -45.50640000     -30.68830000     -69.67500000
C      -44.79430000     -31.56270000     -71.70590000
H      -46.05750000     -30.50690000     -68.75020000
C      -43.64030000     -31.11430000     -71.18320000
C      -44.56890000     -32.10990000     -73.01030000
C      -43.26550000     -32.00240000     -73.38580000
S      -43.77910000     -30.27900000     -69.63020000
S      -42.28530000     -31.31760000     -72.13110000
H      -42.79670000     -32.39490000     -74.30230000
