40
Properties=species:S:1:pos:R:3 #=T CELL(abcABC):=T 1.889726e+02=T 90.00000=T Traj:=T positionsangstrom=T Step:=T 0=T Bead:=T pbc="F F F"
C      -45.52420000     -37.35670000     -71.48670000
C      -45.05170000     -36.14090000     -71.79260000
C      -45.14440000     -35.07330000     -70.88910000
C      -45.74680000     -35.23750000     -69.61590000
C      -46.38320000     -36.51430000     -69.34720000
C      -46.15920000     -37.55190000     -70.24430000
H      -45.57300000     -38.15820000     -72.24680000
H      -44.64060000     -34.14090000     -71.05720000
H      -46.96170000     -36.72260000     -68.46060000
H      -46.73830000     -38.50490000     -70.06130000
C      -45.76820000     -34.07400000     -68.69550000
H      -45.10730000     -33.33980000     -69.04100000
H      -45.45320000     -34.33690000     -67.69260000
C      -44.38550000     -35.80500000     -73.11880000
H      -43.73430000     -34.87520000     -73.11640000
H      -43.89290000     -36.73110000     -73.50700000
S      -47.52170000     -33.23590000     -68.55890000
S      -45.71580000     -35.48820000     -74.44550000
C      -47.78580000     -33.15180000     -70.34880000
H      -47.31030000     -34.05290000     -70.73880000
H      -48.86360000     -33.19620000     -70.55600000
C      -46.52080000     -33.84610000     -73.80220000
H      -46.67230000     -34.13180000     -72.77970000
H      -47.44210000     -33.75630000     -74.43570000
C      -45.72440000     -32.51730000     -73.92740000
H      -45.41040000     -32.28740000     -74.93470000
H      -46.44760000     -31.68730000     -73.75930000
C      -47.31130000     -31.84210000     -71.03860000
H      -47.95150000     -31.09080000     -70.62350000
H      -47.54660000     -31.90560000     -72.05980000
C      -45.90670000     -31.40940000     -70.77320000
C      -45.55880000     -30.74090000     -69.63030000
C      -44.81010000     -31.52450000     -71.73990000
H      -46.25070000     -30.51260000     -68.84210000
C      -43.59760000     -31.09110000     -71.17350000
C      -44.63470000     -32.20660000     -73.00920000
C      -43.31270000     -32.18840000     -73.40550000
S      -43.85930000     -30.30740000     -69.54290000
S      -42.28850000     -31.36640000     -72.25040000
H      -42.92560000     -32.77730000     -74.29870000
