40
Properties=species:S:1:pos:R:3 #=T CELL(abcABC):=T 1.889726e+02=T 90.00000=T Traj:=T positionsangstrom=T Step:=T 0=T Bead:=T pbc="F F F"
C      -43.26720000     -31.25620000     -68.65120000
C      -44.10380000     -31.51840000     -69.75530000
C      -43.73480000     -32.57640000     -70.64360000
C      -42.70770000     -33.49020000     -70.34110000
C      -41.90280000     -33.27170000     -69.23040000
C      -42.17310000     -32.10940000     -68.42970000
H      -43.55820000     -30.54880000     -67.89060000
H      -44.12040000     -32.65500000     -71.68490000
H      -41.07790000     -33.93310000     -68.90690000
H      -41.47220000     -31.88310000     -67.58650000
C      -42.30840000     -34.61380000     -71.30000000
H      -41.21810000     -34.60020000     -71.54040000
H      -42.77090000     -34.44620000     -72.35630000
C      -45.21960000     -30.65490000     -70.26670000
H      -45.10250000     -29.58000000     -70.13030000
H      -45.43780000     -30.90580000     -71.37250000
S      -42.65680000     -36.31840000     -70.67000000
S      -46.81660000     -30.82390000     -69.26360000
C      -44.41360000     -36.80870000     -70.94860000
H      -44.45040000     -37.52770000     -71.77000000
H      -44.69460000     -37.30300000     -70.03260000
C      -47.09240000     -32.63990000     -69.15320000
H      -47.40920000     -32.82970000     -68.14920000
H      -46.10330000     -33.05480000     -69.19340000
C      -48.00530000     -33.39680000     -70.07540000
H      -47.96020000     -34.46080000     -69.78090000
H      -49.04460000     -33.04570000     -69.82210000
C      -45.54620000     -35.70600000     -70.95330000
H      -45.29730000     -34.98660000     -70.16380000
H      -46.48870000     -36.22920000     -70.70150000
C      -45.88900000     -35.04490000     -72.31680000
C      -45.35260000     -35.36200000     -73.53570000
C      -46.77230000     -33.86820000     -72.44240000
H      -44.68150000     -36.20130000     -73.66780000
C      -46.78860000     -33.34210000     -73.70430000
C      -47.67440000     -33.15600000     -71.51840000
C      -48.27130000     -32.06410000     -72.17890000
S      -45.76370000     -34.28910000     -74.83940000
S      -47.78060000     -31.94380000     -73.92470000
H      -49.02750000     -31.37980000     -71.80000000
