40
Properties=species:S:1:pos:R:3 #=T CELL(abcABC):=T 1.889726e+02=T 90.00000=T Traj:=T positionsangstrom=T Step:=T 0=T Bead:=T pbc="F F F"
C      -46.70510000     -36.65500000     -72.80050000
C      -45.61260000     -35.80570000     -72.81720000
C      -45.14640000     -35.30660000     -71.57130000
C      -45.81600000     -35.60410000     -70.38280000
C      -46.95590000     -36.43090000     -70.42030000
C      -47.41370000     -36.99320000     -71.61660000
H      -47.19460000     -36.93660000     -73.70280000
H      -44.22240000     -34.65750000     -71.75730000
H      -47.36530000     -36.76210000     -69.45960000
H      -48.30920000     -37.65600000     -71.64210000
C      -45.36360000     -34.99350000     -69.02590000
H      -44.40450000     -34.49440000     -69.15230000
H      -45.30090000     -35.77160000     -68.18900000
C      -44.87190000     -35.50980000     -74.05340000
H      -43.75810000     -35.37620000     -73.78000000
H      -44.97880000     -36.29950000     -74.74180000
S      -46.63100000     -33.73610000     -68.34530000
S      -45.50490000     -33.91860000     -74.94440000
C      -47.42730000     -33.00260000     -69.81600000
H      -47.07630000     -33.60480000     -70.72970000
H      -48.48910000     -33.16480000     -69.62420000
C      -46.80400000     -33.17940000     -73.82570000
H      -47.05960000     -33.97610000     -73.03780000
H      -47.76650000     -33.06230000     -74.31000000
C      -46.32800000     -31.82470000     -73.17770000
H      -46.33170000     -31.21250000     -74.04800000
H      -47.09900000     -31.52950000     -72.50100000
C      -47.15030000     -31.47180000     -69.84000000
H      -47.58380000     -31.06530000     -68.92550000
H      -47.78030000     -31.03300000     -70.62090000
C      -45.68170000     -31.23760000     -69.92310000
C      -44.93550000     -31.10930000     -68.80060000
C      -44.78100000     -31.64000000     -71.06810000
H      -45.48350000     -30.71760000     -68.00790000
C      -43.50510000     -31.70860000     -70.67280000
C      -44.98850000     -31.89770000     -72.49120000
C      -43.78100000     -32.13200000     -73.11070000
S      -43.19770000     -31.42570000     -68.97410000
S      -42.41970000     -32.06240000     -72.01170000
H      -43.67290000     -32.27380000     -74.21870000
