40
Properties=species:S:1:pos:R:3 #=T CELL(abcABC):=T 1.889726e+02=T 90.00000=T Traj:=T positionsangstrom=T Step:=T 0=T Bead:=T pbc="F F F"
C      -43.82920000     -36.09060000     -68.49160000
C      -43.18730000     -35.43820000     -69.52810000
C      -43.54070000     -35.88400000     -70.90760000
C      -44.55320000     -36.81640000     -71.19450000
C      -45.10770000     -37.47380000     -70.02040000
C      -44.74220000     -37.11150000     -68.78870000
H      -43.55050000     -35.84740000     -67.50900000
H      -42.97610000     -35.42730000     -71.70870000
H      -45.91110000     -38.17380000     -70.22010000
H      -45.08790000     -37.74330000     -68.00030000
C      -45.08530000     -37.26280000     -72.52250000
H      -46.07550000     -37.56640000     -72.46350000
H      -44.61930000     -38.19500000     -72.80350000
C      -42.10910000     -34.38840000     -69.31110000
H      -41.25070000     -34.77400000     -68.66120000
H      -41.58810000     -34.01590000     -70.23610000
S      -44.76440000     -36.11990000     -73.94870000
S      -42.91730000     -32.92410000     -68.38480000
C      -46.10540000     -34.89570000     -73.74880000
H      -46.17510000     -34.27480000     -74.72740000
H      -47.01690000     -35.43300000     -73.64380000
C      -44.26100000     -32.56350000     -69.52890000
H      -45.05090000     -32.10450000     -69.05370000
H      -44.66210000     -33.46030000     -70.02830000
C      -43.92470000     -31.50050000     -70.57950000
H      -43.14520000     -30.80510000     -70.25280000
H      -43.39060000     -31.92280000     -71.35710000
C      -45.78450000     -33.92570000     -72.60320000
H      -44.70300000     -33.67810000     -72.59130000
H      -45.91370000     -34.41990000     -71.63380000
C      -46.56940000     -32.65830000     -72.51740000
C      -47.86630000     -32.74390000     -73.04310000
C      -46.17340000     -31.37010000     -72.10770000
H      -48.41010000     -33.61710000     -73.37140000
C      -47.28420000     -30.50960000     -72.19210000
C      -45.12400000     -30.80460000     -71.21120000
C      -45.49400000     -29.53230000     -70.91410000
S      -48.68600000     -31.16740000     -73.05040000
S      -47.00600000     -28.91990000     -71.52380000
H      -44.80430000     -28.89390000     -70.36480000
