40
Properties=species:S:1:pos:R:3 #=T CELL(abcABC):=T 1.889726e+02=T 90.00000=T Traj:=T positionsangstrom=T Step:=T 0=T Bead:=T pbc="F F F"
C      -43.21900000     -31.39230000     -68.65940000
C      -43.98800000     -31.48750000     -69.83180000
C      -43.81950000     -32.61250000     -70.69800000
C      -42.78160000     -33.52410000     -70.47640000
C      -41.86940000     -33.28570000     -69.47350000
C      -42.12400000     -32.24800000     -68.54590000
H      -43.27160000     -30.50150000     -67.99430000
H      -44.52990000     -32.71070000     -71.48710000
H      -41.09880000     -34.00830000     -69.34220000
H      -41.43270000     -32.07150000     -67.72870000
C      -42.49480000     -34.74220000     -71.37870000
H      -41.51820000     -34.72700000     -71.69670000
H      -43.11510000     -34.73800000     -72.26540000
C      -45.09710000     -30.52780000     -70.25060000
H      -44.71670000     -29.58170000     -70.15530000
H      -45.24320000     -30.57870000     -71.33540000
S      -42.88370000     -36.30590000     -70.45200000
S      -46.74030000     -30.63570000     -69.24350000
C      -44.49140000     -36.75730000     -71.08570000
H      -44.47340000     -37.06720000     -72.16730000
H      -44.75850000     -37.59260000     -70.48230000
C      -46.97820000     -32.56870000     -68.92660000
H      -47.51220000     -32.71200000     -67.97840000
H      -45.94030000     -32.96280000     -68.77940000
C      -47.72970000     -33.30130000     -70.05200000
H      -47.55860000     -34.38810000     -69.93530000
H      -48.77090000     -33.15230000     -69.88370000
C      -45.64630000     -35.68860000     -70.95520000
H      -45.47480000     -35.02140000     -70.09710000
H      -46.48390000     -36.24570000     -70.56510000
C      -45.88400000     -34.98420000     -72.21810000
C      -45.42780000     -35.39510000     -73.46350000
C      -46.73810000     -33.85040000     -72.37870000
H      -44.86390000     -36.25430000     -73.72560000
C      -46.76280000     -33.42490000     -73.70160000
C      -47.45630000     -33.00080000     -71.51280000
C      -48.13230000     -32.03300000     -72.29280000
S      -45.88990000     -34.39820000     -74.80980000
S      -47.73760000     -32.05880000     -73.99090000
H      -48.66460000     -31.17410000     -71.90520000
