40
Properties=species:S:1:pos:R:3 #=T CELL(abcABC):=T 1.889726e+02=T 90.00000=T Traj:=T positionsangstrom=T Step:=T 0=T Bead:=T pbc="F F F"
C      -46.40440000     -36.84980000     -72.64710000
C      -45.48860000     -35.80030000     -72.46980000
C      -45.38940000     -35.28530000     -71.17450000
C      -46.04110000     -35.83350000     -70.06680000
C      -46.96260000     -36.88100000     -70.24460000
C      -47.08550000     -37.35120000     -71.52690000
H      -46.62140000     -37.22150000     -73.65440000
H      -44.73350000     -34.40870000     -70.98370000
H      -47.38280000     -37.36370000     -69.33990000
H      -47.88800000     -38.07990000     -71.76790000
C      -45.75230000     -35.17770000     -68.72200000
H      -44.71520000     -34.84280000     -68.55920000
H      -45.98530000     -35.90770000     -67.94300000
C      -44.65430000     -35.09530000     -73.64890000
H      -43.93150000     -34.39370000     -73.17270000
H      -44.05730000     -35.78000000     -74.24810000
S      -47.00250000     -33.89600000     -68.19630000
S      -45.79280000     -34.26280000     -74.79440000
C      -47.52060000     -33.01290000     -69.80010000
H      -47.10940000     -33.64500000     -70.62590000
H      -48.62790000     -33.03990000     -69.66120000
C      -46.73100000     -33.03390000     -73.68240000
H      -46.78500000     -33.44440000     -72.69990000
H      -47.73710000     -33.05340000     -74.03120000
C      -46.06560000     -31.67130000     -73.61560000
H      -45.72120000     -31.33380000     -74.59490000
H      -46.85570000     -31.03380000     -73.24090000
C      -47.13070000     -31.56680000     -70.07600000
H      -47.58390000     -30.99870000     -69.20810000
H      -47.52990000     -31.30030000     -71.02870000
C      -45.58820000     -31.27480000     -70.12740000
C      -44.80510000     -31.08290000     -68.95840000
C      -44.73750000     -31.40140000     -71.27560000
H      -45.18200000     -31.08640000     -67.89920000
C      -43.34690000     -31.42260000     -70.94140000
C      -44.90610000     -31.65330000     -72.74040000
C      -43.69110000     -31.81520000     -73.33070000
S      -43.07790000     -31.26560000     -69.21240000
S      -42.29900000     -31.84740000     -72.25420000
H      -43.61730000     -32.04920000     -74.35330000
