40
Properties=species:S:1:pos:R:3 #=T CELL(abcABC):=T 1.889726e+02=T 90.00000=T Traj:=T positionsangstrom=T Step:=T 0=T Bead:=T pbc="F F F"
C      -43.88110000     -31.21490000     -68.51360000
C      -44.41600000     -31.36070000     -69.82530000
C      -43.89110000     -32.45390000     -70.58970000
C      -42.78900000     -33.24130000     -70.10350000
C      -42.17570000     -32.94370000     -68.88560000
C      -42.77410000     -31.97120000     -68.04650000
H      -44.32360000     -30.46100000     -67.93130000
H      -44.28710000     -32.72230000     -71.55910000
H      -41.30940000     -33.55430000     -68.56140000
H      -42.32290000     -31.54790000     -67.14860000
C      -42.08760000     -34.27420000     -70.96620000
H      -40.96540000     -34.07920000     -70.92430000
H      -42.33640000     -34.13730000     -72.00820000
C      -45.60580000     -30.68940000     -70.44980000
H      -45.71030000     -29.56680000     -70.40080000
H      -45.38550000     -30.74770000     -71.59260000
S      -42.24070000     -36.05060000     -70.44410000
S      -47.25580000     -31.31660000     -69.97290000
C      -43.88320000     -36.60490000     -71.18170000
H      -43.80240000     -37.21810000     -72.12850000
H      -44.11620000     -37.35370000     -70.47800000
C      -47.12650000     -33.13450000     -69.32600000
H      -47.45380000     -33.14910000     -68.26930000
H      -46.10940000     -33.44120000     -69.35940000
C      -48.00900000     -34.09860000     -70.18400000
H      -47.79820000     -35.18960000     -69.97600000
H      -49.09950000     -34.00100000     -69.92160000
C      -45.07000000     -35.69070000     -71.20440000
H      -44.88260000     -35.01290000     -70.41350000
H      -45.93690000     -36.25650000     -70.82120000
C      -45.39430000     -34.85950000     -72.42540000
C      -44.59930000     -34.64760000     -73.51000000
C      -46.60610000     -34.00720000     -72.42220000
H      -43.53910000     -34.95470000     -73.63180000
C      -46.63860000     -33.17160000     -73.55400000
C      -47.79090000     -33.78330000     -71.63830000
C      -48.74040000     -33.03650000     -72.29030000
S      -45.29910000     -33.50090000     -74.64660000
S      -48.15040000     -32.37260000     -73.73910000
H      -49.77360000     -32.83160000     -72.00150000
