40
Properties=species:S:1:pos:R:3 #=T CELL(abcABC):=T 1.889726e+02=T 90.00000=T Traj:=T positionsangstrom=T Step:=T 0=T Bead:=T pbc="F F F"
C      -44.44310000     -31.13580000     -68.32680000
C      -45.03490000     -31.35200000     -69.61580000
C      -44.39910000     -32.31750000     -70.38860000
C      -43.20960000     -32.97300000     -70.07740000
C      -42.55000000     -32.53370000     -68.92290000
C      -43.22520000     -31.67990000     -68.01070000
H      -44.89720000     -30.35210000     -67.67390000
H      -44.82630000     -32.62730000     -71.37440000
H      -41.58020000     -32.88710000     -68.62280000
H      -42.70690000     -31.35590000     -67.13280000
C      -42.59100000     -34.08940000     -70.95330000
H      -41.56990000     -33.70040000     -71.16060000
H      -43.09840000     -34.41490000     -71.87760000
C      -46.36250000     -30.66400000     -69.96590000
H      -46.39950000     -29.71200000     -69.42050000
H      -46.38490000     -30.27170000     -71.06470000
S      -42.56790000     -35.65540000     -69.95790000
S      -47.90610000     -31.53230000     -69.51030000
C      -43.69530000     -36.69780000     -71.04430000
H      -43.16160000     -36.95240000     -72.01480000
H      -43.85140000     -37.60420000     -70.50490000
C      -47.38280000     -33.38320000     -69.38980000
H      -47.80100000     -33.82040000     -68.50840000
H      -46.28430000     -33.40090000     -69.20440000
C      -47.78390000     -34.16800000     -70.65870000
H      -47.41220000     -35.19050000     -70.47780000
H      -48.88160000     -34.26010000     -70.76300000
C      -44.99620000     -36.09060000     -71.34860000
H      -45.47930000     -35.55880000     -70.49270000
H      -45.69410000     -36.94180000     -71.50960000
C      -45.14940000     -35.14230000     -72.56620000
C      -44.40930000     -35.19430000     -73.70420000
C      -46.12670000     -34.05470000     -72.70900000
H      -43.65280000     -35.92440000     -73.90600000
C      -46.02470000     -33.35690000     -73.88950000
C      -47.27520000     -33.64820000     -71.93460000
C      -47.91900000     -32.60390000     -72.52200000
S      -44.67410000     -33.85700000     -74.80990000
S      -47.28040000     -32.20700000     -74.16050000
H      -48.84000000     -32.08030000     -72.13030000
