40
Properties=species:S:1:pos:R:3 #=T CELL(abcABC):=T 1.889726e+02=T 90.00000=T Traj:=T positionsangstrom=T Step:=T 0=T Bead:=T pbc="F F F"
C      -44.26730000     -31.08290000     -68.39550000
C      -44.70130000     -31.50050000     -69.67060000
C      -43.88550000     -32.45890000     -70.36150000
C      -42.71040000     -33.01920000     -69.89120000
C      -42.33450000     -32.63130000     -68.57360000
C      -43.05880000     -31.68460000     -67.89380000
H      -44.77290000     -30.26130000     -67.93590000
H      -44.05870000     -32.70170000     -71.41440000
H      -41.47730000     -33.11760000     -68.09020000
H      -42.77740000     -31.41230000     -66.88160000
C      -41.96250000     -34.06220000     -70.74440000
H      -40.88100000     -33.85320000     -70.88470000
H      -42.36170000     -34.13570000     -71.78150000
C      -45.93270000     -30.82950000     -70.18450000
H      -45.97770000     -29.74260000     -69.87160000
H      -46.16600000     -30.93000000     -71.27010000
S      -42.30640000     -35.77750000     -70.18630000
S      -47.45610000     -31.56620000     -69.35340000
C      -43.75710000     -36.37480000     -71.12450000
H      -43.53620000     -36.69850000     -72.11080000
H      -43.94490000     -37.31320000     -70.63720000
C      -47.25550000     -33.35870000     -69.35500000
H      -47.55700000     -33.68320000     -68.35940000
H      -46.24790000     -33.58690000     -69.44060000
C      -47.97730000     -34.09170000     -70.49880000
H      -47.74170000     -35.14310000     -70.48090000
H      -49.05600000     -34.18350000     -70.25300000
C      -45.01910000     -35.48950000     -71.20320000
H      -44.86360000     -34.59190000     -70.57430000
H      -45.99450000     -35.91610000     -70.83120000
C      -45.39690000     -34.92750000     -72.55460000
C      -44.69500000     -35.09410000     -73.68480000
C      -46.43490000     -33.90060000     -72.66820000
H      -43.77820000     -35.56650000     -73.75390000
C      -46.42710000     -33.35190000     -73.97670000
C      -47.58250000     -33.47620000     -71.85750000
C      -48.35930000     -32.59210000     -72.54220000
S      -45.26090000     -34.10830000     -75.04960000
S      -47.77530000     -32.29890000     -74.20220000
H      -49.32530000     -32.14590000     -72.14110000
