40
Properties=species:S:1:pos:R:3 #=T CELL(abcABC):=T 1.889726e+02=T 90.00000=T Traj:=T positionsangstrom=T Step:=T 0=T Bead:=T pbc="F F F"
C      -45.03510000     -36.85810000     -72.64890000
C      -45.62500000     -36.71800000     -71.36830000
C      -44.74310000     -36.54620000     -70.22860000
C      -43.34270000     -36.38960000     -70.37920000
C      -42.81490000     -36.50170000     -71.65610000
C      -43.63480000     -36.77580000     -72.75380000
H      -45.61070000     -37.00320000     -73.53260000
H      -45.25050000     -36.48990000     -69.20680000
H      -41.76660000     -36.31410000     -71.81810000
H      -43.05910000     -36.89810000     -73.73410000
C      -42.45600000     -35.89260000     -69.20190000
H      -41.46590000     -35.89620000     -69.64630000
H      -42.35630000     -36.56190000     -68.34760000
C      -47.13550000     -36.68250000     -71.23950000
H      -47.57220000     -36.63550000     -72.26600000
H      -47.39340000     -37.54200000     -70.82860000
S      -42.98640000     -34.22600000     -68.58620000
S      -47.84560000     -35.46640000     -70.07380000
C      -43.28860000     -33.20130000     -70.17350000
H      -42.36200000     -32.83090000     -70.52000000
H      -43.73410000     -33.92250000     -70.90800000
C      -47.43770000     -34.01150000     -71.10340000
H      -47.99720000     -34.05630000     -72.03870000
H      -46.42420000     -34.01500000     -71.41440000
C      -47.73550000     -32.60180000     -70.52670000
H      -48.73570000     -32.39740000     -70.41440000
H      -47.24390000     -32.41170000     -69.53640000
C      -44.27910000     -32.07440000     -69.90540000
H      -43.81470000     -31.44860000     -69.16640000
H      -45.16710000     -32.43470000     -69.44830000
C      -44.58510000     -31.27310000     -71.15150000
C      -43.57580000     -30.56490000     -71.80190000
C      -45.89340000     -31.16340000     -71.83470000
H      -42.50020000     -30.56980000     -71.45170000
C      -45.80360000     -30.36680000     -72.94820000
C      -47.23890000     -31.61480000     -71.53130000
C      -48.09870000     -31.10670000     -72.38010000
S      -44.21200000     -29.67250000     -73.25680000
S      -47.35860000     -30.05130000     -73.69240000
H      -49.15310000     -31.32320000     -72.49330000
