40
Properties=species:S:1:pos:R:3 #=T CELL(abcABC):=T 1.889726e+02=T 90.00000=T Traj:=T positionsangstrom=T Step:=T 0=T Bead:=T pbc="F F F"
C      -46.86510000     -36.53790000     -72.88380000
C      -45.61190000     -35.90050000     -72.90700000
C      -45.10830000     -35.40560000     -71.74930000
C      -45.82740000     -35.43190000     -70.53130000
C      -46.99130000     -36.15120000     -70.51230000
C      -47.53180000     -36.72820000     -71.67120000
H      -47.13070000     -37.06410000     -73.80500000
H      -44.09760000     -34.91400000     -71.76580000
H      -47.53390000     -36.24040000     -69.62050000
H      -48.52440000     -37.25230000     -71.69390000
C      -45.34630000     -34.74310000     -69.25670000
H      -44.65380000     -33.88320000     -69.42370000
H      -44.85160000     -35.44980000     -68.63070000
C      -44.91950000     -35.51040000     -74.13060000
H      -43.86690000     -35.34800000     -74.08620000
H      -45.09920000     -36.36890000     -74.81940000
S      -46.79310000     -34.11120000     -68.31400000
S      -45.61960000     -34.02640000     -75.08680000
C      -47.64340000     -33.08050000     -69.63950000
H      -47.62990000     -33.62730000     -70.54300000
H      -48.66250000     -32.96340000     -69.33880000
C      -46.69400000     -33.10130000     -73.75030000
H      -46.74490000     -33.85200000     -72.94670000
H      -47.68450000     -32.94400000     -74.23840000
C      -46.16700000     -31.80040000     -73.31280000
H      -45.89140000     -31.13490000     -74.14260000
H      -46.95350000     -31.21980000     -72.79300000
C      -47.14370000     -31.61110000     -69.69080000
H      -47.47570000     -31.12940000     -68.73190000
H      -47.61230000     -31.08360000     -70.47250000
C      -45.57090000     -31.42400000     -69.83120000
C      -44.82060000     -31.19000000     -68.71190000
C      -44.68180000     -31.59830000     -70.98880000
H      -45.27290000     -31.17830000     -67.76460000
C      -43.36790000     -31.59520000     -70.57190000
C      -44.92260000     -31.83560000     -72.34870000
C      -43.75490000     -32.10630000     -73.05720000
S      -43.10290000     -31.24520000     -68.86930000
S      -42.36690000     -32.09470000     -71.94040000
H      -43.64710000     -32.23980000     -74.12780000
