40
Properties=species:S:1:pos:R:3 #=T CELL(abcABC):=T 1.889726e+02=T 90.00000=T Traj:=T positionsangstrom=T Step:=T 0=T Bead:=T pbc="F F F"
C      -45.97580000     -37.18170000     -72.47950000
C      -46.43400000     -36.61820000     -71.24250000
C      -45.47540000     -36.30940000     -70.23830000
C      -44.15420000     -36.68420000     -70.33110000
C      -43.77660000     -37.37270000     -71.51830000
C      -44.65180000     -37.55110000     -72.56900000
H      -46.71600000     -37.28380000     -73.30920000
H      -45.77430000     -35.81990000     -69.31000000
H      -42.77390000     -37.88020000     -71.54200000
H      -44.40880000     -37.99480000     -73.52610000
C      -43.19400000     -36.27920000     -69.12210000
H      -42.17540000     -36.37830000     -69.48070000
H      -43.45850000     -36.91980000     -68.25530000
C      -47.83950000     -36.29180000     -71.07970000
H      -48.39160000     -36.42880000     -72.01410000
H      -48.33600000     -37.02340000     -70.43420000
S      -43.57830000     -34.54740000     -68.53370000
S      -48.39960000     -34.74130000     -70.25940000
C      -43.30510000     -33.36720000     -69.88120000
H      -42.22950000     -33.35230000     -70.05990000
H      -43.67580000     -33.85760000     -70.79580000
C      -47.33750000     -33.61680000     -71.27300000
H      -47.65610000     -33.71240000     -72.31320000
H      -46.34160000     -34.15190000     -71.12390000
C      -47.22100000     -32.23760000     -70.73360000
H      -48.21770000     -31.79580000     -70.42580000
H      -46.64320000     -32.35720000     -69.84740000
C      -44.03140000     -32.06570000     -69.63910000
H      -43.62310000     -31.49400000     -68.79620000
H      -45.08370000     -32.48300000     -69.47240000
C      -44.11430000     -31.09370000     -70.95660000
C      -42.98190000     -30.53990000     -71.48300000
C      -45.31590000     -30.85460000     -71.76920000
H      -41.92610000     -30.58140000     -71.07430000
C      -44.93690000     -30.27980000     -72.95390000
C      -46.63140000     -31.37660000     -71.80280000
C      -47.29220000     -31.03150000     -72.94300000
S      -43.29890000     -29.71730000     -73.00790000
S      -46.26790000     -30.19040000     -74.17180000
H      -48.28900000     -31.36190000     -73.15510000
