40
Properties=species:S:1:pos:R:3 #=T CELL(abcABC):=T 1.889726e+02=T 90.00000=T Traj:=T positionsangstrom=T Step:=T 0=T Bead:=T pbc="F F F"
C      -45.97600000     -37.40670000     -71.94180000
C      -46.24590000     -36.90260000     -70.66800000
C      -45.22580000     -36.45290000     -69.79440000
C      -43.92050000     -36.55280000     -70.29720000
C      -43.68750000     -37.03010000     -71.60370000
C      -44.70450000     -37.44590000     -72.45970000
H      -46.75110000     -37.81180000     -72.52450000
H      -45.49440000     -35.92950000     -68.83370000
H      -42.69650000     -37.01970000     -72.03030000
H      -44.40150000     -37.80860000     -73.44620000
C      -42.82460000     -36.10120000     -69.45330000
H      -41.92170000     -36.14560000     -70.03480000
H      -42.52000000     -36.80650000     -68.63790000
C      -47.67070000     -36.78110000     -70.27490000
H      -48.32140000     -37.15150000     -71.02830000
H      -47.88980000     -37.23740000     -69.38460000
S      -43.05340000     -34.42690000     -68.64590000
S      -48.19200000     -34.97000000     -70.08730000
C      -43.41100000     -33.41640000     -70.19970000
H      -42.46820000     -32.99910000     -70.51100000
H      -43.78510000     -34.15930000     -70.94150000
C      -47.31760000     -34.01750000     -71.47530000
H      -47.80520000     -34.38370000     -72.32360000
H      -46.29800000     -34.41130000     -71.49170000
C      -47.60970000     -32.52950000     -71.33740000
H      -48.62530000     -32.36800000     -71.60270000
H      -47.54380000     -32.10750000     -70.27360000
C      -44.32910000     -32.16350000     -69.95260000
H      -44.00580000     -31.69460000     -68.96480000
H      -45.34250000     -32.50850000     -69.67450000
C      -44.40580000     -31.23790000     -71.10150000
C      -43.39880000     -30.27250000     -71.29620000
C      -45.42480000     -31.02340000     -72.09570000
H      -42.54050000     -30.13400000     -70.69520000
C      -45.15650000     -30.07090000     -73.04000000
C      -46.75580000     -31.59200000     -72.26760000
C      -47.39140000     -31.17370000     -73.36470000
S      -43.53170000     -29.26400000     -72.74980000
S      -46.43920000     -29.96510000     -74.22520000
H      -48.37690000     -31.44230000     -73.71500000
