40
Properties=species:S:1:pos:R:3 #=T CELL(abcABC):=T 1.889726e+02=T 90.00000=T Traj:=T positionsangstrom=T Step:=T 0=T Bead:=T pbc="F F F"
C      -46.06720000     -36.86320000     -72.46930000
C      -46.62970000     -36.67370000     -71.16230000
C      -45.78900000     -36.67620000     -70.04140000
C      -44.40120000     -36.84860000     -70.17320000
C      -43.84740000     -37.01330000     -71.46700000
C      -44.71400000     -37.06400000     -72.57960000
H      -46.65630000     -36.89580000     -73.39010000
H      -46.23920000     -36.45370000     -69.09940000
H      -42.76860000     -37.15660000     -71.49740000
H      -44.21680000     -37.34280000     -73.53790000
C      -43.44050000     -36.63230000     -69.00640000
H      -42.48830000     -36.78510000     -69.43890000
H      -43.57250000     -37.09860000     -68.07100000
C      -48.08770000     -36.30810000     -70.92010000
H      -48.51050000     -36.27810000     -71.96260000
H      -48.64590000     -37.08380000     -70.39360000
S      -43.41960000     -34.73980000     -68.56880000
S      -48.22050000     -34.66250000     -70.16400000
C      -43.55750000     -33.78870000     -70.14770000
H      -42.61850000     -33.63560000     -70.69660000
H      -44.22490000     -34.33990000     -70.93670000
C      -47.19510000     -33.65710000     -71.31370000
H      -47.42590000     -33.81230000     -72.34650000
H      -46.15400000     -33.91160000     -71.14040000
C      -47.42700000     -32.18450000     -70.98670000
H      -48.45720000     -32.07520000     -71.05480000
H      -47.15360000     -31.88870000     -69.95510000
C      -44.19520000     -32.37910000     -69.93270000
H      -43.86090000     -31.90860000     -69.00020000
H      -45.25440000     -32.50460000     -69.75900000
C      -44.13740000     -31.45950000     -71.08940000
C      -42.91510000     -30.97880000     -71.55390000
C      -45.22840000     -31.04270000     -71.94800000
H      -41.87890000     -31.32200000     -71.18130000
C      -44.81250000     -30.16960000     -72.99340000
C      -46.64700000     -31.23580000     -71.97350000
C      -47.27620000     -30.56530000     -73.02390000
S      -43.10670000     -29.87050000     -72.95900000
S      -46.07700000     -29.61770000     -73.93420000
H      -48.27890000     -30.71490000     -73.37920000
