40
Properties=species:S:1:pos:R:3 #=T CELL(abcABC):=T 1.889726e+02=T 90.00000=T Traj:=T positionsangstrom=T Step:=T 0=T Bead:=T pbc="F F F"
C      -46.07600000     -37.03100000     -72.56490000
C      -46.56770000     -36.66550000     -71.27770000
C      -45.69730000     -36.35370000     -70.23390000
C      -44.30230000     -36.43820000     -70.41980000
C      -43.80370000     -36.80460000     -71.68080000
C      -44.67430000     -37.04760000     -72.74070000
H      -46.72690000     -37.10360000     -73.41550000
H      -46.08760000     -35.93990000     -69.28750000
H      -42.73750000     -36.85200000     -71.94620000
H      -44.34550000     -37.31420000     -73.72470000
C      -43.36490000     -36.27660000     -69.22970000
H      -42.32310000     -36.22980000     -69.49970000
H      -43.67350000     -36.94310000     -68.46400000
C      -48.06410000     -36.57830000     -70.98580000
H      -48.51010000     -36.86890000     -71.94370000
H      -48.38110000     -37.33200000     -70.20130000
S      -43.53240000     -34.60740000     -68.50790000
S      -48.50250000     -34.89190000     -70.32720000
C      -43.91670000     -33.60380000     -69.96200000
H      -43.36840000     -33.95490000     -70.89040000
H      -44.90070000     -33.81440000     -70.30220000
C      -47.56970000     -33.70630000     -71.48280000
H      -48.20850000     -33.49010000     -72.34260000
H      -46.68450000     -34.17050000     -71.91170000
C      -47.07010000     -32.44310000     -70.73320000
H      -47.87580000     -31.90520000     -70.18620000
H      -46.25830000     -32.69450000     -69.99280000
C      -43.85600000     -32.09100000     -69.61650000
H      -42.90230000     -31.78640000     -69.17730000
H      -44.72870000     -31.78410000     -68.95220000
C      -43.88640000     -31.36160000     -71.02500000
C      -42.74570000     -30.76710000     -71.57300000
C      -45.04790000     -31.15760000     -71.85860000
H      -41.79350000     -30.88300000     -71.15870000
C      -44.77450000     -30.22780000     -72.87860000
C      -46.47140000     -31.45550000     -71.71640000
C      -47.20980000     -30.78730000     -72.69200000
S      -43.06490000     -29.95430000     -73.06440000
S      -46.21950000     -29.75410000     -73.78670000
H      -48.26610000     -30.92090000     -72.84750000
