40
Properties=species:S:1:pos:R:3 #=T CELL(abcABC):=T 1.889726e+02=T 90.00000=T Traj:=T positionsangstrom=T Step:=T 0=T Bead:=T pbc="F F F"
C      -46.49800000     -35.22580000     -74.82390000
C      -45.63080000     -34.44610000     -74.05840000
C      -45.50900000     -34.65790000     -72.67080000
C      -46.41220000     -35.49720000     -71.99720000
C      -47.31850000     -36.22330000     -72.73070000
C      -47.36490000     -36.07710000     -74.13310000
H      -46.55140000     -35.09520000     -75.87550000
H      -44.84470000     -34.10320000     -72.04650000
H      -48.16270000     -36.78360000     -72.29110000
H      -48.15250000     -36.63490000     -74.61490000
C      -46.21090000     -35.62640000     -70.50460000
H      -45.33960000     -35.03790000     -70.24910000
H      -45.96960000     -36.63170000     -70.22610000
C      -44.84150000     -33.33200000     -74.66200000
H      -43.82410000     -33.30180000     -74.27750000
H      -44.86510000     -33.28800000     -75.74930000
S      -47.77810000     -35.09620000     -69.58520000
S      -45.67390000     -31.67000000     -74.36050000
C      -47.54970000     -33.26470000     -69.52330000
H      -47.18700000     -33.02690000     -70.48490000
H      -48.52500000     -32.79580000     -69.38270000
C      -46.60060000     -31.60560000     -72.77800000
H      -46.88420000     -32.62030000     -72.38520000
H      -47.53120000     -31.10460000     -73.09960000
C      -45.98660000     -30.82700000     -71.55800000
H      -45.94780000     -29.76640000     -71.81430000
H      -46.67600000     -30.94850000     -70.67130000
C      -46.60660000     -32.68660000     -68.37730000
H      -46.81220000     -33.17270000     -67.35380000
H      -47.10590000     -31.67570000     -68.25140000
C      -45.17560000     -32.78400000     -68.70120000
C      -44.31950000     -33.48710000     -67.88180000
C      -44.44320000     -32.17340000     -69.87420000
H      -44.69420000     -34.06230000     -67.04420000
C      -43.13610000     -32.61100000     -69.84490000
C      -44.67840000     -31.40500000     -71.13500000
C      -43.61150000     -31.40480000     -71.99770000
S      -42.69530000     -33.65040000     -68.42290000
S      -42.16130000     -32.19130000     -71.21240000
H      -43.51150000     -30.68000000     -72.81690000
