40
Properties=species:S:1:pos:R:3 #=T CELL(abcABC):=T 1.889726e+02=T 90.00000=T Traj:=T positionsangstrom=T Step:=T 0=T Bead:=T pbc="F F F"
C      -44.39540000     -31.60220000     -66.63080000
C      -44.55860000     -31.40100000     -68.02070000
C      -43.76120000     -32.05860000     -68.92390000
C      -42.68180000     -32.81200000     -68.50080000
C      -42.42040000     -32.94070000     -67.14690000
C      -43.29220000     -32.40340000     -66.17430000
H      -45.14120000     -31.17750000     -65.91130000
H      -43.93300000     -31.91440000     -70.01560000
H      -41.67040000     -33.68900000     -66.94430000
H      -43.08090000     -32.53860000     -65.12610000
C      -41.74650000     -33.46310000     -69.50980000
H      -40.80320000     -33.75490000     -69.04480000
H      -41.46860000     -32.83860000     -70.38140000
C      -45.73920000     -30.61700000     -68.54630000
H      -46.08980000     -29.91230000     -67.78540000
H      -45.46450000     -30.09920000     -69.47560000
S      -42.42840000     -34.97210000     -70.29420000
S      -47.23910000     -31.75290000     -68.98510000
C      -43.29930000     -34.33220000     -71.80050000
H      -43.82190000     -33.39110000     -71.65000000
H      -42.58900000     -34.18720000     -72.56850000
C      -46.99840000     -32.21360000     -70.72790000
H      -45.94240000     -32.13870000     -70.95190000
H      -47.54750000     -31.55190000     -71.41510000
C      -47.39500000     -33.61140000     -71.04470000
H      -46.67250000     -34.28380000     -70.56550000
H      -48.44200000     -33.78810000     -70.57070000
C      -44.39590000     -35.42950000     -72.22140000
H      -45.10810000     -35.66230000     -71.46360000
H      -43.98110000     -36.43780000     -72.38600000
C      -45.20980000     -35.06090000     -73.47890000
C      -44.66580000     -35.35990000     -74.70850000
C      -46.46720000     -34.28930000     -73.55510000
H      -43.69530000     -35.81070000     -74.96560000
C      -46.75730000     -33.87960000     -74.84060000
C      -47.46220000     -33.85830000     -72.61520000
C      -48.63140000     -33.32450000     -73.17630000
S      -45.63300000     -34.55910000     -75.97180000
S      -48.37740000     -33.22680000     -74.95980000
H      -49.49670000     -32.74870000     -72.73680000
