40
Properties=species:S:1:pos:R:3 #=T CELL(abcABC):=T 1.889726e+02=T 90.00000=T Traj:=T positionsangstrom=T Step:=T 0=T Bead:=T pbc="F F F"
C      -44.33630000     -31.44650000     -66.72180000
C      -44.49300000     -31.23120000     -68.08360000
C      -43.55150000     -31.64920000     -68.98130000
C      -42.40670000     -32.46100000     -68.52760000
C      -42.34420000     -32.75740000     -67.15060000
C      -43.30720000     -32.24230000     -66.26740000
H      -45.07400000     -31.00410000     -65.98720000
H      -43.54640000     -31.36590000     -70.01710000
H      -41.60000000     -33.45070000     -66.76610000
H      -43.12060000     -32.13270000     -65.17890000
C      -41.51600000     -33.09870000     -69.57460000
H      -40.56940000     -33.50880000     -69.14500000
H      -41.17720000     -32.43140000     -70.32500000
C      -45.74840000     -30.53080000     -68.65810000
H      -46.19250000     -29.79900000     -67.91160000
H      -45.52560000     -30.10870000     -69.63770000
S      -42.28120000     -34.65040000     -70.35570000
S      -47.07150000     -31.89270000     -68.91560000
C      -43.19550000     -34.16320000     -71.83520000
H      -43.30180000     -33.04990000     -71.83490000
H      -42.69950000     -34.38720000     -72.76060000
C      -46.71870000     -32.57460000     -70.66000000
H      -45.91900000     -33.18670000     -70.45690000
H      -46.50710000     -31.83550000     -71.39070000
C      -47.84080000     -33.50550000     -71.14720000
H      -47.91390000     -34.38760000     -70.50630000
H      -48.85280000     -33.10010000     -71.04250000
C      -44.50750000     -34.85830000     -71.92940000
H      -45.17100000     -34.53820000     -71.06320000
H      -44.32280000     -35.92000000     -71.71920000
C      -45.23160000     -34.72320000     -73.25830000
C      -44.61210000     -35.05720000     -74.45360000
C      -46.54480000     -34.17930000     -73.46100000
H      -43.65290000     -35.56330000     -74.51590000
C      -46.93120000     -34.26690000     -74.83120000
C      -47.77610000     -33.81240000     -72.63810000
C      -48.91730000     -33.78130000     -73.38890000
S      -45.60710000     -34.84090000     -75.84830000
S      -48.67810000     -34.07930000     -75.13580000
H      -49.86750000     -33.48080000     -72.93330000
