40
Properties=species:S:1:pos:R:3 #=T CELL(abcABC):=T 1.889726e+02=T 90.00000=T Traj:=T positionsangstrom=T Step:=T 0=T Bead:=T pbc="F F F"
C      -44.40370000     -31.95660000     -66.48090000
C      -44.68010000     -31.87070000     -67.85560000
C      -43.83220000     -32.37830000     -68.83610000
C      -42.70400000     -33.09150000     -68.33030000
C      -42.38630000     -33.25630000     -66.96200000
C      -43.23710000     -32.60660000     -66.03560000
H      -45.08690000     -31.33660000     -65.78610000
H      -43.98530000     -32.17040000     -69.88250000
H      -41.53230000     -33.80250000     -66.68410000
H      -43.03440000     -32.69930000     -64.96060000
C      -41.73240000     -33.59500000     -69.33200000
H      -40.79940000     -34.02660000     -68.86510000
H      -41.47780000     -32.98250000     -70.19890000
C      -45.86640000     -31.03250000     -68.29350000
H      -46.16860000     -30.35810000     -67.47990000
H      -45.59130000     -30.47890000     -69.23050000
S      -42.57800000     -35.10580000     -70.29460000
S      -47.38970000     -31.94620000     -68.82490000
C      -43.44730000     -34.30660000     -71.72620000
H      -43.79500000     -33.34370000     -71.49800000
H      -42.88510000     -34.30210000     -72.67350000
C      -47.53500000     -31.85490000     -70.72060000
H      -46.79740000     -31.18150000     -71.16160000
H      -48.53080000     -31.38260000     -70.84880000
C      -47.37460000     -33.24870000     -71.28150000
H      -46.42670000     -33.58450000     -70.83410000
H      -48.14590000     -33.90170000     -71.01290000
C      -44.69390000     -35.21920000     -72.01730000
H      -45.42820000     -35.03650000     -71.25340000
H      -44.44860000     -36.27780000     -71.97660000
C      -45.30090000     -34.93670000     -73.38430000
C      -44.84490000     -35.49330000     -74.56700000
C      -46.40250000     -34.08210000     -73.67310000
H      -43.93910000     -36.08200000     -74.80150000
C      -46.71810000     -33.97260000     -75.00450000
C      -47.32200000     -33.25760000     -72.81710000
C      -48.13240000     -32.45060000     -73.59460000
S      -45.53800000     -34.76110000     -76.05030000
S      -47.82900000     -32.74850000     -75.35470000
H      -49.02320000     -31.92910000     -73.29660000
