40
Properties=species:S:1:pos:R:3 #=T CELL(abcABC):=T 1.889726e+02=T 90.00000=T Traj:=T positionsangstrom=T Step:=T 0=T Bead:=T pbc="F F F"
C      -44.37620000     -31.49890000     -66.75160000
C      -44.52730000     -31.30930000     -68.13720000
C      -43.68110000     -31.95630000     -69.01140000
C      -42.76020000     -32.94020000     -68.57000000
C      -42.64180000     -33.17620000     -67.18790000
C      -43.48610000     -32.55900000     -66.27160000
H      -45.18230000     -31.01310000     -66.14220000
H      -43.63400000     -31.78690000     -70.05370000
H      -41.77050000     -33.76310000     -66.85010000
H      -43.41720000     -32.68940000     -65.20400000
C      -41.86080000     -33.52860000     -69.58300000
H      -40.96160000     -33.68600000     -69.00290000
H      -41.71840000     -32.88380000     -70.40040000
C      -45.78700000     -30.59690000     -68.57120000
H      -46.14400000     -29.91360000     -67.78410000
H      -45.73370000     -30.07980000     -69.52540000
S      -42.58100000     -35.13440000     -70.21880000
S      -47.17940000     -31.81910000     -68.79040000
C      -43.59590000     -34.44700000     -71.63010000
H      -44.23680000     -33.65410000     -71.22290000
H      -42.85770000     -33.97790000     -72.36750000
C      -47.15150000     -32.16310000     -70.64960000
H      -46.22140000     -31.72700000     -71.00920000
H      -48.03370000     -31.64340000     -71.04070000
C      -47.16110000     -33.61070000     -71.08820000
H      -46.32220000     -34.14410000     -70.72390000
H      -47.93910000     -34.22090000     -70.69640000
C      -44.53790000     -35.60310000     -72.27350000
H      -45.31640000     -35.91670000     -71.49390000
H      -43.91120000     -36.45380000     -72.45470000
C      -45.09800000     -35.04220000     -73.49640000
C      -44.53680000     -35.11420000     -74.72860000
C      -46.34190000     -34.28820000     -73.48530000
H      -43.64130000     -35.56570000     -75.07060000
C      -46.73410000     -33.92710000     -74.84110000
C      -47.30770000     -33.67330000     -72.56480000
C      -48.31380000     -33.00600000     -73.24860000
S      -45.65740000     -34.61330000     -76.04850000
S      -48.22250000     -33.04330000     -74.98470000
H      -48.84790000     -32.23310000     -72.70330000
