40
Properties=species:S:1:pos:R:3 #=T CELL(abcABC):=T 1.889726e+02=T 90.00000=T Traj:=T positionsangstrom=T Step:=T 0=T Bead:=T pbc="F F F"
C      -44.04220000     -36.67500000     -68.71940000
C      -44.95030000     -35.60430000     -68.67960000
C      -44.47270000     -34.29830000     -68.48420000
C      -43.09030000     -34.08390000     -68.50430000
C      -42.15430000     -35.12210000     -68.76520000
C      -42.66700000     -36.40790000     -68.74100000
H      -44.42300000     -37.63490000     -68.81300000
H      -45.11660000     -33.43410000     -68.32500000
H      -41.12660000     -34.83890000     -68.77980000
H      -42.06050000     -37.33300000     -68.79250000
C      -42.66470000     -32.66420000     -68.53960000
H      -42.02570000     -32.31230000     -67.72950000
H      -43.50020000     -31.91160000     -68.69330000
C      -46.41000000     -35.65240000     -68.88390000
H      -46.85700000     -36.08120000     -67.96420000
H      -46.87160000     -34.68200000     -68.95280000
S      -41.67560000     -32.35960000     -70.15980000
S      -47.03030000     -36.80100000     -70.18280000
C      -42.74480000     -31.32950000     -71.38880000
H      -43.05610000     -30.35760000     -71.01350000
H      -42.15770000     -31.22950000     -72.29260000
C      -47.54520000     -35.61660000     -71.53400000
H      -48.52880000     -35.16560000     -71.44390000
H      -47.72880000     -36.17490000     -72.39230000
C      -46.54990000     -34.45370000     -71.75020000
H      -46.46600000     -33.95020000     -70.68850000
H      -45.48520000     -34.79180000     -71.82670000
C      -44.05260000     -32.16640000     -71.67940000
H      -44.47270000     -32.31620000     -70.68740000
H      -43.69940000     -33.16950000     -71.90560000
C      -45.08060000     -31.59270000     -72.67780000
C      -44.97230000     -30.33230000     -73.19020000
C      -46.32980000     -32.21890000     -73.10690000
H      -44.04330000     -29.76370000     -73.07590000
C      -47.04770000     -31.43720000     -73.99830000
C      -47.02470000     -33.43610000     -72.72540000
C      -48.28740000     -33.44790000     -73.31830000
S      -46.27750000     -29.85890000     -74.25040000
S      -48.56400000     -32.11330000     -74.38360000
H      -48.99060000     -34.32190000     -73.33650000
