40
Properties=species:S:1:pos:R:3 #=T CELL(abcABC):=T 1.889726e+02=T 90.00000=T Traj:=T positionsangstrom=T Step:=T 0=T Bead:=T pbc="F F F"
C      -44.30230000     -31.46500000     -66.61860000
C      -44.60570000     -31.42960000     -67.97210000
C      -43.65580000     -31.88710000     -68.91270000
C      -42.50420000     -32.61460000     -68.51600000
C      -42.23090000     -32.72550000     -67.14660000
C      -43.10820000     -32.12200000     -66.21870000
H      -44.93480000     -31.04340000     -65.88220000
H      -43.79470000     -31.80060000     -69.93560000
H      -41.29530000     -33.18260000     -66.88920000
H      -42.89770000     -32.34460000     -65.16360000
C      -41.60100000     -33.21330000     -69.55150000
H      -40.60160000     -33.39010000     -69.14520000
H      -41.57190000     -32.44770000     -70.36510000
C      -45.86560000     -30.70940000     -68.47490000
H      -46.44790000     -30.23670000     -67.64070000
H      -45.59890000     -29.89300000     -69.14500000
S      -42.32260000     -34.76330000     -70.26280000
S      -47.24150000     -31.71430000     -69.09890000
C      -43.23730000     -34.16080000     -71.82400000
H      -43.53740000     -33.19200000     -71.57970000
H      -42.49340000     -34.12120000     -72.68110000
C      -46.66590000     -32.60770000     -70.58800000
H      -45.60610000     -33.01070000     -70.40470000
H      -46.42220000     -31.85280000     -71.40360000
C      -47.68300000     -33.71420000     -71.10840000
H      -47.51270000     -34.73460000     -70.61480000
H      -48.63680000     -33.44560000     -70.67200000
C      -44.42750000     -35.03190000     -72.06630000
H      -45.14910000     -34.94780000     -71.23960000
H      -44.14980000     -36.06780000     -72.05300000
C      -45.17610000     -34.75810000     -73.34220000
C      -44.51540000     -34.99240000     -74.54030000
C      -46.55660000     -34.31390000     -73.50080000
H      -43.46520000     -35.25290000     -74.74010000
C      -46.95200000     -34.38620000     -74.82270000
C      -47.71630000     -33.88890000     -72.66240000
C      -48.83520000     -33.54910000     -73.38390000
S      -45.68350000     -34.71080000     -75.90400000
S      -48.55250000     -33.78820000     -75.12490000
H      -49.78690000     -33.10600000     -73.12140000
