40
Properties=species:S:1:pos:R:3 #=T CELL(abcABC):=T 1.889726e+02=T 90.00000=T Traj:=T positionsangstrom=T Step:=T 0=T Bead:=T pbc="F F F"
C      -46.99360000     -34.54210000     -74.63390000
C      -45.92930000     -34.04320000     -73.82800000
C      -45.70590000     -34.70290000     -72.63600000
C      -46.61280000     -35.68340000     -72.11200000
C      -47.69250000     -36.16540000     -72.93440000
C      -47.84400000     -35.60590000     -74.22110000
H      -47.11780000     -34.20520000     -75.67770000
H      -44.83910000     -34.42870000     -72.02190000
H      -48.42410000     -36.85530000     -72.56230000
H      -48.63610000     -36.08510000     -74.78440000
C      -46.40460000     -36.19580000     -70.67330000
H      -45.35400000     -35.96220000     -70.35300000
H      -46.47580000     -37.27920000     -70.58340000
C      -45.05590000     -32.92560000     -74.23060000
H      -44.11370000     -32.88460000     -73.61950000
H      -44.89030000     -32.92840000     -75.31070000
S      -47.58660000     -35.45860000     -69.43750000
S      -45.89230000     -31.28370000     -73.94020000
C      -47.44510000     -33.63270000     -69.71750000
H      -47.04950000     -33.44320000     -70.69850000
H      -48.42780000     -33.29670000     -69.55890000
C      -46.60740000     -31.41600000     -72.22280000
H      -46.74730000     -32.50620000     -72.04120000
H      -47.60970000     -30.93590000     -72.34880000
C      -45.85980000     -30.65350000     -71.14880000
H      -45.69110000     -29.60260000     -71.44680000
H      -46.59880000     -30.63300000     -70.30620000
C      -46.42130000     -33.08240000     -68.69340000
H      -46.69700000     -33.51560000     -67.70030000
H      -46.57630000     -32.00290000     -68.76400000
C      -44.97970000     -33.31010000     -69.18600000
C      -44.16540000     -34.21840000     -68.53790000
C      -44.18380000     -32.39030000     -70.02470000
H      -44.60670000     -34.95450000     -67.84860000
C      -42.88130000     -32.72110000     -70.15260000
C      -44.52330000     -31.27180000     -70.83890000
C      -43.43790000     -30.78530000     -71.54200000
S      -42.49520000     -34.14220000     -68.98770000
S      -42.00180000     -31.69740000     -71.21410000
H      -43.18080000     -29.90120000     -72.08360000
