40
Properties=species:S:1:pos:R:3 #=T CELL(abcABC):=T 1.889726e+02=T 90.00000=T Traj:=T positionsangstrom=T Step:=T 0=T Bead:=T pbc="F F F"
C      -47.16030000     -33.98050000     -74.42420000
C      -45.91320000     -33.83870000     -73.74230000
C      -45.58310000     -34.67510000     -72.69180000
C      -46.52150000     -35.64760000     -72.21560000
C      -47.60490000     -35.89700000     -73.05800000
C      -47.97640000     -35.06100000     -74.11890000
H      -47.46160000     -33.38400000     -75.21760000
H      -44.63510000     -34.39850000     -72.23030000
H      -48.36970000     -36.61280000     -72.76060000
H      -48.79650000     -35.32380000     -74.66110000
C      -46.35930000     -36.47400000     -70.96120000
H      -45.34120000     -36.39290000     -70.51150000
H      -46.55820000     -37.53310000     -71.26190000
C      -45.06750000     -32.59040000     -74.01940000
H      -44.18270000     -32.50510000     -73.47860000
H      -44.69050000     -32.46380000     -75.01630000
S      -47.62270000     -35.91350000     -69.71640000
S      -46.04520000     -31.02520000     -73.69710000
C      -47.40690000     -34.12900000     -69.54600000
H      -47.27730000     -33.81230000     -70.56780000
H      -48.43930000     -33.75080000     -69.27410000
C      -46.59500000     -31.17740000     -71.96010000
H      -46.60850000     -32.31690000     -71.66780000
H      -47.68850000     -30.97530000     -71.91090000
C      -45.84430000     -30.47400000     -70.74020000
H      -45.74680000     -29.42040000     -71.00770000
H      -46.45260000     -30.74310000     -69.84610000
C      -46.28030000     -33.57180000     -68.54160000
H      -46.34880000     -34.20870000     -67.68020000
H      -46.54090000     -32.56900000     -68.18270000
C      -44.90670000     -33.42420000     -69.10260000
C      -44.07900000     -34.54720000     -69.01510000
C      -44.25710000     -32.41860000     -69.93050000
H      -44.32590000     -35.39930000     -68.40130000
C      -42.95870000     -32.80560000     -70.22170000
C      -44.50420000     -31.10540000     -70.53520000
C      -43.39090000     -30.57750000     -71.18820000
S      -42.41680000     -34.34490000     -69.61540000
S      -42.02050000     -31.65380000     -71.12040000
H      -43.44380000     -29.63820000     -71.64740000
