40
Properties=species:S:1:pos:R:3 #=T CELL(abcABC):=T 1.889726e+02=T 90.00000=T Traj:=T positionsangstrom=T Step:=T 0=T Bead:=T pbc="F F F"
C      -44.44870000     -31.85030000     -66.46130000
C      -44.78420000     -31.78810000     -67.85060000
C      -43.87100000     -32.22190000     -68.87280000
C      -42.81210000     -33.03260000     -68.48010000
C      -42.56990000     -33.29010000     -67.04730000
C      -43.34510000     -32.60580000     -66.09310000
H      -45.13210000     -31.21950000     -65.85030000
H      -44.06670000     -31.89890000     -69.89910000
H      -41.73490000     -33.93560000     -66.70650000
H      -43.03780000     -32.66630000     -65.05780000
C      -41.86020000     -33.67620000     -69.43270000
H      -41.04160000     -33.93550000     -68.79050000
H      -41.49620000     -33.02730000     -70.12790000
C      -45.96080000     -30.94610000     -68.26080000
H      -46.31140000     -30.31120000     -67.46770000
H      -45.77450000     -30.35120000     -69.11170000
S      -42.48780000     -35.16400000     -70.39720000
S      -47.35660000     -32.11290000     -68.73880000
C      -43.56460000     -34.37440000     -71.66910000
H      -44.09480000     -33.50200000     -71.19840000
H      -42.91820000     -34.04730000     -72.48680000
C      -47.26910000     -31.90000000     -70.56670000
H      -46.35800000     -31.34030000     -70.83120000
H      -48.07260000     -31.25020000     -70.88420000
C      -47.32440000     -33.18670000     -71.36110000
H      -46.55340000     -33.89620000     -70.85480000
H      -48.39460000     -33.56040000     -71.09820000
C      -44.64030000     -35.38080000     -72.09010000
H      -45.39820000     -35.66700000     -71.27170000
H      -44.14530000     -36.35040000     -72.30330000
C      -45.27850000     -34.89670000     -73.36240000
C      -44.78840000     -35.49220000     -74.50000000
C      -46.24100000     -33.87350000     -73.61140000
H      -44.15910000     -36.37380000     -74.48870000
C      -46.59660000     -33.78520000     -74.95680000
C      -47.22320000     -33.07620000     -72.84650000
C      -48.06120000     -32.33270000     -73.63430000
S      -45.63100000     -34.93590000     -76.00430000
S      -47.83720000     -32.68260000     -75.33920000
H      -48.80400000     -31.65510000     -73.24490000
