40
Properties=species:S:1:pos:R:3 #=T CELL(abcABC):=T 1.889726e+02=T 90.00000=T Traj:=T positionsangstrom=T Step:=T 0=T Bead:=T pbc="F F F"
C      -44.61780000     -37.22830000     -71.87420000
C      -45.81400000     -36.72200000     -71.31300000
C      -45.69690000     -36.19150000     -69.97070000
C      -44.49870000     -36.16180000     -69.29960000
C      -43.35620000     -36.55550000     -69.94240000
C      -43.41810000     -37.15020000     -71.22120000
H      -44.67690000     -37.79350000     -72.75000000
H      -46.59950000     -35.79740000     -69.44210000
H      -42.34520000     -36.42940000     -69.41390000
H      -42.52840000     -37.44040000     -71.70740000
C      -44.35730000     -35.65350000     -67.91050000
H      -43.41690000     -35.93080000     -67.57030000
H      -45.14060000     -35.97720000     -67.25840000
C      -47.02940000     -36.90630000     -72.16080000
H      -46.82010000     -36.80930000     -73.27630000
H      -47.43300000     -37.87130000     -71.99290000
S      -44.56590000     -33.83570000     -67.71640000
S      -48.33600000     -35.65060000     -71.70960000
C      -44.23860000     -33.09320000     -69.36880000
H      -43.19250000     -32.93170000     -69.56170000
H      -44.62080000     -33.75580000     -70.20320000
C      -47.73890000     -34.18330000     -72.76390000
H      -48.58910000     -33.71270000     -73.22100000
H      -47.03450000     -34.65740000     -73.50180000
C      -46.85940000     -33.25720000     -71.90920000
H      -47.26840000     -32.84370000     -70.98630000
H      -45.95470000     -33.73470000     -71.62050000
C      -44.91990000     -31.76490000     -69.51300000
H      -44.50690000     -31.09200000     -68.69250000
H      -45.93920000     -31.88450000     -69.43580000
C      -44.55740000     -31.03360000     -70.84060000
C      -43.66040000     -30.02080000     -70.83470000
C      -45.30080000     -31.12220000     -72.10260000
H      -43.12030000     -29.71660000     -69.91130000
C      -44.79550000     -30.18810000     -73.03600000
C      -46.26070000     -31.99080000     -72.70350000
C      -46.48530000     -31.75430000     -73.98830000
S      -43.56520000     -29.15520000     -72.33900000
S      -45.45380000     -30.47870000     -74.67230000
H      -47.23890000     -32.23520000     -74.66530000
