40
Properties=species:S:1:pos:R:3 #=T CELL(abcABC):=T 1.889726e+02=T 90.00000=T Traj:=T positionsangstrom=T Step:=T 0=T Bead:=T pbc="F F F"
C      -43.77680000     -28.77700000     -70.72300000
C      -44.21080000     -29.90900000     -71.50070000
C      -45.39510000     -30.52690000     -71.04340000
C      -46.13630000     -30.04470000     -69.97400000
C      -45.70810000     -28.87770000     -69.22910000
C      -44.52410000     -28.29310000     -69.65120000
H      -42.79830000     -28.41050000     -70.82000000
H      -45.78100000     -31.34850000     -71.54690000
H      -46.16510000     -28.52120000     -68.35000000
H      -44.18680000     -27.35650000     -69.20730000
C      -47.28680000     -30.86350000     -69.49200000
H      -47.86930000     -31.23490000     -70.35960000
H      -48.02430000     -30.37010000     -68.81180000
C      -43.56650000     -30.23320000     -72.80760000
H      -43.90550000     -29.54870000     -73.60320000
H      -42.50210000     -30.15140000     -72.65480000
S      -46.49910000     -32.16370000     -68.41250000
S      -43.99760000     -31.96860000     -73.52550000
C      -46.65920000     -33.72020000     -69.49950000
H      -47.66960000     -34.22080000     -69.37170000
H      -46.56440000     -33.48450000     -70.56820000
C      -42.75950000     -33.01690000     -72.62680000
H      -42.07120000     -32.32820000     -72.15850000
H      -42.19150000     -33.51300000     -73.42150000
C      -43.59790000     -33.87570000     -71.65520000
H      -42.99340000     -34.45750000     -70.98370000
H      -44.18590000     -33.16880000     -70.96670000
C      -45.56160000     -34.78280000     -69.18860000
H      -45.45960000     -35.08990000     -68.15760000
H      -44.52610000     -34.32390000     -69.49670000
C      -45.87830000     -35.89260000     -70.22910000
C      -46.62310000     -37.05480000     -70.05420000
C      -45.44800000     -35.79290000     -71.59260000
H      -46.97490000     -37.46190000     -69.11240000
C      -45.98920000     -36.75890000     -72.47320000
C      -44.55170000     -34.90510000     -72.31410000
C      -44.35440000     -35.36860000     -73.57700000
S      -46.96930000     -37.93530000     -71.62530000
S      -45.32640000     -36.67820000     -74.08360000
H      -43.63390000     -34.93620000     -74.33400000
