40
Properties=species:S:1:pos:R:3 #=T CELL(abcABC):=T 1.889726e+02=T 90.00000=T Traj:=T positionsangstrom=T Step:=T 0=T Bead:=T pbc="F F F"
C      -44.90580000     -36.56280000     -71.99010000
C      -45.99330000     -36.63280000     -71.05410000
C      -45.72080000     -36.34170000     -69.72540000
C      -44.36370000     -36.06080000     -69.33750000
C      -43.32310000     -35.95470000     -70.26820000
C      -43.60510000     -36.25510000     -71.60880000
H      -45.07850000     -36.81650000     -73.02310000
H      -46.43880000     -36.45130000     -68.96280000
H      -42.33660000     -35.63680000     -69.99360000
H      -42.83350000     -36.29130000     -72.35130000
C      -44.16320000     -35.53360000     -67.90670000
H      -43.16150000     -35.44880000     -67.72970000
H      -44.57060000     -36.20610000     -67.17630000
C      -47.37290000     -36.92280000     -71.48930000
H      -47.38740000     -37.41240000     -72.46930000
H      -47.91360000     -37.68000000     -70.78210000
S      -45.01870000     -33.93450000     -67.69280000
S      -48.46480000     -35.47240000     -71.70540000
C      -44.13610000     -32.86240000     -68.91520000
H      -43.46310000     -32.26580000     -68.31610000
H      -43.42470000     -33.36090000     -69.57570000
C      -47.69190000     -34.27060000     -72.84720000
H      -48.53380000     -33.87240000     -73.46030000
H      -46.93680000     -34.79960000     -73.55380000
C      -46.95830000     -33.17140000     -72.09780000
H      -47.65860000     -32.71510000     -71.40740000
H      -46.17320000     -33.60820000     -71.44090000
C      -45.17860000     -31.94240000     -69.57120000
H      -45.35610000     -31.14770000     -68.78690000
H      -46.18410000     -32.43400000     -69.69690000
C      -44.63190000     -31.22760000     -70.82790000
C      -43.61710000     -30.29720000     -70.76700000
C      -45.12560000     -31.39960000     -72.21720000
H      -43.23380000     -29.85170000     -69.85520000
C      -44.40900000     -30.61250000     -73.06760000
C      -46.18270000     -32.14660000     -72.90450000
C      -46.36560000     -31.75320000     -74.19330000
S      -43.17850000     -29.57060000     -72.38250000
S      -45.16730000     -30.59940000     -74.69980000
H      -46.99410000     -32.35320000     -74.82550000
