40
Properties=species:S:1:pos:R:3 #=T CELL(abcABC):=T 1.889726e+02=T 90.00000=T Traj:=T positionsangstrom=T Step:=T 0=T Bead:=T pbc="F F F"
C      -44.42190000     -36.97810000     -71.98490000
C      -45.66380000     -36.73420000     -71.42350000
C      -45.81630000     -36.31150000     -70.09080000
C      -44.71260000     -36.07330000     -69.27960000
C      -43.46290000     -36.42040000     -69.83780000
C      -43.33100000     -36.86850000     -71.15840000
H      -44.37430000     -37.21750000     -73.05240000
H      -46.87120000     -36.01490000     -69.73530000
H      -42.58930000     -36.32200000     -69.20120000
H      -42.29940000     -37.14860000     -71.51950000
C      -44.73580000     -35.58400000     -67.85910000
H      -43.92150000     -36.01310000     -67.38500000
H      -45.56130000     -35.95270000     -67.35360000
C      -46.87120000     -36.73380000     -72.34670000
H      -46.58210000     -36.41140000     -73.35170000
H      -47.20100000     -37.78520000     -72.54440000
S      -44.75160000     -33.70530000     -67.70430000
S      -48.32340000     -35.70100000     -71.74900000
C      -44.24420000     -33.00990000     -69.27710000
H      -43.08120000     -33.02890000     -69.36130000
H      -44.52450000     -33.62400000     -70.03020000
C      -47.85080000     -34.06920000     -72.55400000
H      -48.80050000     -33.49100000     -72.59910000
H      -47.53420000     -34.25060000     -73.56950000
C      -46.85790000     -33.28090000     -71.67200000
H      -47.30480000     -33.02470000     -70.78000000
H      -45.92810000     -33.84690000     -71.43340000
C      -44.76460000     -31.61040000     -69.56270000
H      -44.51430000     -30.89050000     -68.73430000
H      -45.87440000     -31.64460000     -69.49280000
C      -44.49810000     -30.92410000     -70.83790000
C      -43.66660000     -29.82670000     -70.93510000
C      -45.07540000     -31.28780000     -72.07530000
H      -43.14360000     -29.22840000     -70.17670000
C      -44.63890000     -30.46320000     -73.08530000
C      -46.25040000     -32.12240000     -72.44840000
C      -46.54520000     -31.92030000     -73.80630000
S      -43.49790000     -29.23300000     -72.60790000
S      -45.39100000     -30.84110000     -74.58230000
H      -47.30700000     -32.29820000     -74.50150000
