40
Properties=species:S:1:pos:R:3 #=T CELL(abcABC):=T 1.889726e+02=T 90.00000=T Traj:=T positionsangstrom=T Step:=T 0=T Bead:=T pbc="F F F"
C      -47.11570000     -32.93940000     -74.72020000
C      -46.32500000     -32.62060000     -73.59300000
C      -45.82290000     -33.69880000     -72.79940000
C      -46.04360000     -35.01540000     -73.10960000
C      -46.78720000     -35.28860000     -74.22060000
C      -47.29240000     -34.27740000     -75.00900000
H      -47.50210000     -32.12590000     -75.33240000
H      -45.15300000     -33.39890000     -71.99910000
H      -46.93580000     -36.36560000     -74.51930000
H      -47.98990000     -34.61230000     -75.82890000
C      -45.54170000     -36.06710000     -72.13930000
H      -44.64220000     -35.68400000     -71.58860000
H      -45.36620000     -37.07540000     -72.60550000
C      -45.86520000     -31.17420000     -73.40700000
H      -44.76680000     -31.12210000     -73.23050000
H      -46.01220000     -30.61860000     -74.35940000
S      -46.76430000     -36.44150000     -70.81610000
S      -46.89020000     -30.15740000     -72.16310000
C      -47.26080000     -34.77020000     -70.14820000
H      -47.23670000     -33.93000000     -70.76240000
H      -48.31540000     -34.93940000     -69.85910000
C      -46.94990000     -31.24680000     -70.73220000
H      -46.81480000     -32.27920000     -71.19860000
H      -47.91150000     -31.16750000     -70.24380000
C      -45.88280000     -30.91400000     -69.62550000
H      -45.77750000     -29.85480000     -69.62360000
H      -46.28970000     -31.17050000     -68.62430000
C      -46.40950000     -34.43070000     -68.93920000
H      -46.59510000     -35.37810000     -68.39160000
H      -46.80610000     -33.51420000     -68.36670000
C      -44.93580000     -34.24840000     -69.22700000
C      -44.11900000     -35.33970000     -69.33050000
C      -44.28170000     -33.02040000     -69.63950000
H      -44.46000000     -36.27710000     -69.04710000
C      -42.97040000     -33.32100000     -70.09490000
C      -44.62300000     -31.62380000     -69.83180000
C      -43.57410000     -30.95120000     -70.47110000
S      -42.45770000     -34.94620000     -69.84390000
S      -42.23670000     -31.99360000     -70.90260000
H      -43.83090000     -30.05110000     -71.00050000
