40
Properties=species:S:1:pos:R:3 #=T CELL(abcABC):=T 1.889726e+02=T 90.00000=T Traj:=T positionsangstrom=T Step:=T 0=T Bead:=T pbc="F F F"
C      -45.41200000     -36.42840000     -72.35500000
C      -46.45040000     -36.46550000     -71.40250000
C      -46.17850000     -36.19680000     -70.07720000
C      -44.82850000     -36.08980000     -69.69510000
C      -43.74600000     -36.17090000     -70.61670000
C      -44.05640000     -36.26300000     -71.99290000
H      -45.67580000     -36.63500000     -73.41520000
H      -47.00750000     -36.18470000     -69.34700000
H      -42.75650000     -35.93340000     -70.21550000
H      -43.34990000     -36.19310000     -72.82090000
C      -44.43620000     -35.69540000     -68.19450000
H      -43.30050000     -35.55840000     -68.25280000
H      -44.85720000     -36.50350000     -67.51860000
C      -47.90850000     -36.58490000     -71.88740000
H      -47.83880000     -37.17650000     -72.80910000
H      -48.53120000     -37.14020000     -71.19730000
S      -45.07960000     -34.12790000     -67.60220000
S      -48.72410000     -35.04040000     -72.26630000
C      -44.30840000     -32.93250000     -68.76010000
H      -43.61050000     -32.32110000     -68.23580000
H      -43.86010000     -33.61600000     -69.49270000
C      -47.52570000     -34.03190000     -73.26370000
H      -48.06740000     -33.65180000     -74.10230000
H      -46.70950000     -34.70170000     -73.70240000
C      -46.96220000     -32.89330000     -72.40480000
H      -47.80530000     -32.18840000     -72.47030000
H      -46.99030000     -33.28230000     -71.35210000
C      -45.41900000     -32.04890000     -69.46100000
H      -45.92260000     -31.44050000     -68.68660000
H      -46.22000000     -32.77120000     -69.73770000
C      -44.82740000     -31.19550000     -70.52550000
C      -43.99070000     -30.20150000     -70.20010000
C      -44.92850000     -31.41120000     -71.95370000
H      -43.61250000     -29.96600000     -69.20930000
C      -44.03160000     -30.58070000     -72.63540000
C      -45.68890000     -32.21490000     -72.86800000
C      -45.17200000     -32.24930000     -74.11680000
S      -43.16670000     -29.50470000     -71.58610000
S      -43.93760000     -31.02300000     -74.28900000
H      -45.53610000     -32.79930000     -74.95980000
