40
Properties=species:S:1:pos:R:3 #=T CELL(abcABC):=T 1.889726e+02=T 90.00000=T Traj:=T positionsangstrom=T Step:=T 0=T Bead:=T pbc="F F F"
C      -46.56770000     -32.58630000     -74.25940000
C      -45.57410000     -32.46580000     -73.28540000
C      -44.78040000     -33.60080000     -73.02090000
C      -45.05260000     -34.80890000     -73.73870000
C      -45.98690000     -34.84210000     -74.82120000
C      -46.71760000     -33.70480000     -75.08560000
H      -47.26900000     -31.76330000     -74.36750000
H      -43.99020000     -33.48290000     -72.27880000
H      -46.07500000     -35.77960000     -75.41010000
H      -47.45490000     -33.79160000     -75.88780000
C      -44.50310000     -36.13370000     -73.17670000
H      -43.72160000     -35.85870000     -72.45490000
H      -44.13150000     -36.78110000     -73.94620000
C      -45.30320000     -31.04870000     -72.60140000
H      -44.48860000     -31.15950000     -71.88910000
H      -44.91250000     -30.36260000     -73.35170000
S      -45.76360000     -37.07940000     -72.23290000
S      -46.78680000     -30.32040000     -71.88280000
C      -46.83030000     -35.75960000     -71.30620000
H      -46.84440000     -34.89840000     -71.95960000
H      -47.79420000     -36.25030000     -71.32570000
C      -47.60020000     -31.83510000     -71.21010000
H      -47.10040000     -32.67000000     -71.73620000
H      -48.65290000     -31.65080000     -71.36550000
C      -47.38950000     -31.94290000     -69.69720000
H      -48.04490000     -31.14790000     -69.20360000
H      -47.89510000     -32.83430000     -69.22560000
C      -46.44310000     -35.33350000     -69.84830000
H      -46.33580000     -36.28810000     -69.31170000
H      -47.30600000     -34.81660000     -69.51240000
C      -45.12080000     -34.58160000     -69.70080000
C      -43.91050000     -35.24860000     -69.90170000
C      -44.98630000     -33.15550000     -69.44890000
H      -43.72900000     -36.33240000     -69.84460000
C      -43.66130000     -32.87080000     -69.30830000
C      -45.86440000     -31.96210000     -69.44140000
C      -45.08990000     -30.84360000     -69.32450000
S      -42.60680000     -34.17970000     -69.60580000
S      -43.38500000     -31.10230000     -69.02110000
H      -45.49810000     -29.78280000     -69.29830000
