40
Properties=species:S:1:pos:R:3 #=T CELL(abcABC):=T 1.889726e+02=T 90.00000=T Traj:=T positionsangstrom=T Step:=T 0=T Bead:=T pbc="F F F"
C      -44.64070000     -33.77950000     -68.41560000
C      -45.62130000     -32.79490000     -68.65780000
C      -45.32720000     -31.57580000     -69.35120000
C      -44.04410000     -31.52950000     -69.95430000
C      -43.13910000     -32.55600000     -69.76950000
C      -43.37310000     -33.75850000     -68.97250000
H      -44.93640000     -34.71520000     -67.95430000
H      -46.01280000     -30.69580000     -69.55810000
H      -42.07170000     -32.46680000     -70.17130000
H      -42.62700000     -34.58380000     -68.84910000
C      -43.70300000     -30.33420000     -70.80930000
H      -42.88960000     -30.55480000     -71.50260000
H      -43.43530000     -29.47480000     -70.30400000
C      -47.02610000     -33.00070000     -68.16150000
H      -47.03420000     -33.43930000     -67.20040000
H      -47.59290000     -32.09430000     -67.89480000
S      -45.15670000     -29.67250000     -72.00840000
S      -47.83510000     -34.12900000     -69.36600000
C      -45.04100000     -30.63400000     -73.55750000
H      -45.50830000     -29.95560000     -74.38500000
H      -44.04090000     -30.88650000     -73.87310000
C      -47.88800000     -33.18100000     -70.96270000
H      -47.02500000     -32.46000000     -70.88240000
H      -48.72070000     -32.44850000     -71.06120000
C      -47.95980000     -34.09330000     -72.21290000
H      -48.78940000     -34.78120000     -72.13920000
H      -48.25410000     -33.54190000     -73.09530000
C      -45.79140000     -32.01200000     -73.62350000
H      -46.08460000     -32.18770000     -74.70310000
H      -46.68760000     -31.94090000     -73.05710000
C      -44.97370000     -33.20630000     -73.17910000
C      -43.61160000     -33.29610000     -73.44020000
C      -45.45580000     -34.44460000     -72.67580000
H      -42.95840000     -32.58620000     -73.80000000
C      -44.45910000     -35.38960000     -72.51850000
C      -46.73510000     -34.89450000     -72.31580000
C      -46.76010000     -36.20720000     -71.88510000
S      -42.87830000     -34.81590000     -73.04310000
S      -45.13740000     -36.95570000     -71.91440000
H      -47.63600000     -36.78680000     -71.58770000
