40
Properties=species:S:1:pos:R:3 #=T CELL(abcABC):=T 1.889726e+02=T 90.00000=T Traj:=T positionsangstrom=T Step:=T 0=T Bead:=T pbc="F F F"
C      -45.25440000     -36.62760000     -73.26590000
C      -46.41750000     -35.91420000     -73.11370000
C      -46.93850000     -35.72940000     -71.82480000
C      -46.31390000     -36.34120000     -70.74510000
C      -45.04540000     -36.87720000     -70.86850000
C      -44.53070000     -37.04450000     -72.13960000
H      -44.81400000     -36.83500000     -74.20980000
H      -47.92780000     -35.38550000     -71.76760000
H      -44.51640000     -37.07530000     -69.91220000
H      -43.56790000     -37.56620000     -72.28050000
C      -46.97910000     -36.42860000     -69.33410000
H      -46.28770000     -36.98680000     -68.67640000
H      -47.99690000     -36.89520000     -69.40940000
C      -47.11650000     -35.43820000     -74.39700000
H      -46.34790000     -35.34960000     -75.23950000
H      -47.98130000     -36.03420000     -74.70470000
S      -47.22460000     -34.82070000     -68.48050000
S      -47.94240000     -33.73500000     -74.21530000
C      -45.69560000     -33.81660000     -68.82540000
H      -45.07170000     -33.84240000     -67.91550000
H      -45.04230000     -34.17910000     -69.66890000
C      -46.44600000     -32.68760000     -73.89430000
H      -46.67880000     -31.73060000     -74.37920000
H      -45.62600000     -33.31310000     -74.37290000
C      -46.11300000     -32.35090000     -72.44200000
H      -46.84770000     -31.64360000     -72.03730000
H      -46.32940000     -33.30500000     -71.85660000
C      -46.05100000     -32.29960000     -68.97830000
H      -46.25860000     -31.96660000     -67.95470000
H      -46.87730000     -32.25430000     -69.70640000
C      -44.82340000     -31.48740000     -69.54420000
C      -44.03310000     -30.91760000     -68.57550000
C      -44.28480000     -31.53320000     -70.86050000
H      -44.23040000     -31.02150000     -67.50260000
C      -43.06080000     -30.86270000     -70.86950000
C      -44.74160000     -31.89050000     -72.19570000
C      -43.87610000     -31.48880000     -73.18120000
S      -42.51320000     -30.36380000     -69.29060000
S      -42.38980000     -30.77470000     -72.50660000
H      -43.86140000     -31.76360000     -74.20370000
