40
Properties=species:S:1:pos:R:3 #=T CELL(abcABC):=T 1.889726e+02=T 90.00000=T Traj:=T positionsangstrom=T Step:=T 0=T Bead:=T pbc="F F F"
C      -45.94980000     -31.18460000     -74.56890000
C      -45.69250000     -31.37880000     -73.19830000
C      -45.00230000     -32.57050000     -72.82280000
C      -44.49040000     -33.42280000     -73.80390000
C      -44.85270000     -33.25720000     -75.11500000
C      -45.46100000     -32.04910000     -75.53930000
H      -46.35020000     -30.26720000     -74.80220000
H      -44.87240000     -32.84210000     -71.78410000
H      -44.51980000     -33.95160000     -75.83070000
H      -45.59480000     -31.95210000     -76.69950000
C      -43.54620000     -34.50770000     -73.50460000
H      -42.97650000     -34.34010000     -72.54770000
H      -42.86300000     -34.86760000     -74.27640000
C      -46.19930000     -30.45070000     -72.11410000
H      -45.49550000     -30.40370000     -71.21550000
H      -46.21780000     -29.38570000     -72.48770000
S      -44.47600000     -36.22070000     -73.28780000
S      -47.84710000     -30.85380000     -71.57590000
C      -46.00890000     -35.94790000     -72.32800000
H      -46.50620000     -34.93870000     -72.64460000
H      -46.76400000     -36.67960000     -72.69130000
C      -47.93470000     -32.77340000     -71.58660000
H      -47.19460000     -33.04570000     -72.29300000
H      -48.81880000     -33.13330000     -72.12990000
C      -47.67070000     -33.39400000     -70.13910000
H      -48.51340000     -32.96230000     -69.56300000
H      -47.94910000     -34.44270000     -70.10860000
C      -45.76250000     -36.24810000     -70.82630000
H      -45.34070000     -37.27780000     -70.71060000
H      -46.75320000     -36.33570000     -70.42110000
C      -44.85290000     -35.29120000     -70.04000000
C      -43.57150000     -35.72260000     -69.65160000
C      -45.23040000     -34.10550000     -69.36420000
H      -42.99210000     -36.57440000     -70.02000000
C      -44.17740000     -33.47500000     -68.67710000
C      -46.32770000     -33.16260000     -69.47320000
C      -46.12350000     -31.95820000     -68.82210000
S      -42.81040000     -34.50420000     -68.64070000
S      -44.50640000     -31.82380000     -68.12550000
H      -46.72020000     -31.06560000     -68.96900000
