40
Properties=species:S:1:pos:R:3 #=T CELL(abcABC):=T 1.889726e+02=T 90.00000=T Traj:=T positionsangstrom=T Step:=T 0=T Bead:=T pbc="F F F"
C      -44.99770000     -37.17590000     -72.71990000
C      -46.21190000     -36.60510000     -72.52080000
C      -46.73750000     -36.37640000     -71.22290000
C      -45.92430000     -36.62720000     -70.10020000
C      -44.64140000     -37.20080000     -70.32710000
C      -44.13270000     -37.46150000     -71.61440000
H      -44.71590000     -37.34190000     -73.76180000
H      -47.68560000     -35.93860000     -71.06080000
H      -43.91230000     -37.35250000     -69.50530000
H      -43.19900000     -38.05580000     -71.76080000
C      -46.56940000     -36.41710000     -68.75150000
H      -46.17350000     -36.92980000     -67.89550000
H      -47.59270000     -36.73240000     -68.74500000
C      -47.08570000     -36.31080000     -73.73180000
H      -46.61250000     -36.28770000     -74.70000000
H      -47.95100000     -37.04110000     -73.83280000
S      -46.67270000     -34.63470000     -68.29170000
S      -47.89530000     -34.61810000     -73.69520000
C      -45.26320000     -33.71320000     -69.10000000
H      -44.32790000     -33.87960000     -68.62330000
H      -45.20670000     -34.15120000     -70.03530000
C      -46.56230000     -33.36080000     -73.72900000
H      -46.95540000     -32.50960000     -74.16680000
H      -45.70060000     -33.64670000     -74.34000000
C      -46.03160000     -32.92470000     -72.38280000
H      -46.77220000     -32.71230000     -71.57640000
H      -45.45050000     -33.74820000     -71.95610000
C      -45.64790000     -32.16450000     -69.15910000
H      -45.75840000     -31.85940000     -68.12890000
H      -46.59950000     -32.08610000     -69.62980000
C      -44.63240000     -31.32370000     -69.79840000
C      -43.80610000     -30.46610000     -69.11330000
C      -44.45170000     -31.13870000     -71.20860000
H      -43.87540000     -30.27380000     -68.08830000
C      -43.48910000     -30.20040000     -71.58240000
C      -45.08790000     -31.73740000     -72.34780000
C      -44.66660000     -31.16820000     -73.49780000
S      -42.82200000     -29.41030000     -70.17810000
S      -43.43230000     -29.89270000     -73.24440000
H      -45.06920000     -31.39830000     -74.42410000
