40
Properties=species:S:1:pos:R:3 #=T CELL(abcABC):=T 1.889726e+02=T 90.00000=T Traj:=T positionsangstrom=T Step:=T 0=T Bead:=T pbc="F F F"
C      -44.99810000     -36.94060000     -73.02390000
C      -46.22220000     -36.36830000     -72.84740000
C      -46.80540000     -36.19280000     -71.56060000
C      -46.10930000     -36.69860000     -70.47060000
C      -44.95330000     -37.46390000     -70.63850000
C      -44.35010000     -37.45840000     -71.89470000
H      -44.58870000     -36.99550000     -73.98090000
H      -47.75010000     -35.70240000     -71.39600000
H      -44.58910000     -37.91150000     -69.66070000
H      -43.34240000     -37.92100000     -72.05380000
C      -46.80750000     -36.45980000     -69.05720000
H      -46.14350000     -36.78260000     -68.22180000
H      -47.76870000     -37.01110000     -69.10760000
C      -46.90040000     -35.84240000     -74.12800000
H      -46.19770000     -35.64900000     -74.88090000
H      -47.67990000     -36.64470000     -74.32110000
S      -47.26230000     -34.68210000     -68.77190000
S      -47.73820000     -34.32040000     -73.82010000
C      -45.65070000     -33.78350000     -69.01800000
H      -44.96670000     -33.98230000     -68.13130000
H      -45.07270000     -34.15160000     -69.92920000
C      -46.33490000     -33.14040000     -73.73150000
H      -46.71590000     -32.31060000     -74.27970000
H      -45.44240000     -33.65100000     -74.23770000
C      -45.93470000     -32.80340000     -72.33450000
H      -46.83190000     -32.47930000     -71.78790000
H      -45.61430000     -33.73460000     -71.83310000
C      -45.83020000     -32.30910000     -69.07360000
H      -46.09900000     -31.94060000     -68.06580000
H      -46.73920000     -32.20980000     -69.67870000
C      -44.68430000     -31.46190000     -69.59970000
C      -43.81980000     -30.82200000     -68.72420000
C      -44.39790000     -31.18420000     -70.96880000
H      -43.65710000     -30.96980000     -67.69530000
C      -43.35390000     -30.27750000     -71.15000000
C      -44.93570000     -31.65470000     -72.31620000
C      -44.26780000     -31.01570000     -73.33170000
S      -42.65450000     -29.86840000     -69.60160000
S      -43.01250000     -29.88990000     -72.81130000
H      -44.32110000     -31.27850000     -74.38630000
