40
Properties=species:S:1:pos:R:3 #=T CELL(abcABC):=T 1.889726e+02=T 90.00000=T Traj:=T positionsangstrom=T Step:=T 0=T Bead:=T pbc="F F F"
C      -45.43960000     -33.17180000     -67.71290000
C      -45.75090000     -31.96400000     -68.29280000
C      -44.76030000     -31.04940000     -68.87040000
C      -43.43660000     -31.46300000     -68.92510000
C      -43.09230000     -32.66720000     -68.25110000
C      -44.00980000     -33.53090000     -67.78190000
H      -46.12630000     -33.74450000     -67.20590000
H      -45.14350000     -30.20480000     -69.38460000
H      -42.07690000     -33.01000000     -68.31720000
H      -43.73910000     -34.49800000     -67.45160000
C      -42.50740000     -30.60270000     -69.76050000
H      -41.57090000     -30.44560000     -69.21850000
H      -42.88600000     -29.64930000     -70.06910000
C      -47.22010000     -31.61100000     -68.37460000
H      -47.54360000     -31.30410000     -67.36860000
H      -47.38270000     -30.88600000     -69.11720000
S      -41.87330000     -31.67130000     -71.15020000
S      -48.45690000     -33.03340000     -68.65270000
C      -43.35700000     -32.43610000     -71.97430000
H      -44.26060000     -31.99370000     -71.63660000
H      -43.16860000     -32.35420000     -73.01750000
C      -48.28940000     -33.35260000     -70.43580000
H      -48.45780000     -32.45000000     -71.03570000
H      -49.03640000     -34.09320000     -70.79190000
C      -46.90690000     -33.96080000     -70.84420000
H      -46.14850000     -33.21240000     -70.58130000
H      -46.84360000     -34.92500000     -70.27630000
C      -43.46610000     -33.95320000     -71.71550000
H      -44.00540000     -33.94530000     -70.76010000
H      -42.41950000     -34.37370000     -71.63340000
C      -44.22710000     -34.55090000     -72.82210000
C      -43.50660000     -34.98590000     -73.93730000
C      -45.63150000     -34.53750000     -73.04120000
H      -42.45870000     -34.92820000     -73.93590000
C      -45.90650000     -34.95350000     -74.34070000
C      -46.86110000     -34.25650000     -72.32420000
C      -47.98290000     -34.39580000     -73.09620000
S      -44.58610000     -35.34650000     -75.31280000
S      -47.60330000     -35.08790000     -74.74780000
H      -49.04370000     -34.39830000     -72.74110000
