40
Properties=species:S:1:pos:R:3 #=T CELL(abcABC):=T 1.889726e+02=T 90.00000=T Traj:=T positionsangstrom=T Step:=T 0=T Bead:=T pbc="F F F"
C      -44.54070000     -30.43470000     -73.70170000
C      -44.95180000     -31.07360000     -72.54460000
C      -44.37200000     -32.29350000     -72.26360000
C      -43.42050000     -32.91150000     -73.12220000
C      -43.01460000     -32.21330000     -74.25520000
C      -43.57420000     -30.94800000     -74.52130000
H      -45.05140000     -29.49340000     -73.95860000
H      -44.56570000     -32.79710000     -71.25480000
H      -42.22590000     -32.56070000     -74.90160000
H      -43.18830000     -30.35840000     -75.32220000
C      -42.95110000     -34.29140000     -72.81760000
H      -43.11890000     -34.46830000     -71.72330000
H      -41.86660000     -34.45200000     -72.89380000
C      -46.00060000     -30.48380000     -71.63160000
H      -45.99250000     -30.85650000     -70.55770000
H      -45.91530000     -29.36720000     -71.74510000
S      -43.82090000     -35.60320000     -73.75880000
S      -47.78720000     -30.80420000     -72.20790000
C      -45.44440000     -35.63930000     -72.92770000
H      -45.68520000     -34.55010000     -72.86730000
H      -46.08910000     -36.15720000     -73.63030000
C      -47.56820000     -32.61840000     -72.59790000
H      -46.57700000     -32.84820000     -73.03300000
H      -48.29950000     -32.81750000     -73.42660000
C      -47.81960000     -33.59380000     -71.43860000
H      -48.87550000     -33.50790000     -71.02110000
H      -47.79360000     -34.56230000     -71.89630000
C      -45.59860000     -36.37990000     -71.59770000
H      -45.16620000     -37.39270000     -71.49050000
H      -46.66410000     -36.57900000     -71.55810000
C      -45.22760000     -35.61560000     -70.32250000
C      -44.40630000     -36.19500000     -69.36210000
C      -45.82920000     -34.37350000     -69.80420000
H      -43.97560000     -37.13750000     -69.36150000
C      -45.23430000     -33.96310000     -68.59080000
C      -46.85330000     -33.46190000     -70.25250000
C      -47.11920000     -32.54610000     -69.24610000
S      -44.14520000     -35.16150000     -67.96050000
S      -45.97220000     -32.62210000     -67.89040000
H      -47.76800000     -31.67710000     -69.45830000
