40
Properties=species:S:1:pos:R:3 #=T CELL(abcABC):=T 1.889726e+02=T 90.00000=T Traj:=T positionsangstrom=T Step:=T 0=T Bead:=T pbc="F F F"
C      -45.03710000     -36.15100000     -68.90310000
C      -43.87680000     -35.72860000     -69.59810000
C      -43.82680000     -36.12400000     -70.92750000
C      -44.84380000     -36.89020000     -71.56190000
C      -45.97720000     -37.20900000     -70.84860000
C      -46.10370000     -36.76990000     -69.53880000
H      -45.12590000     -35.85130000     -67.84640000
H      -42.92270000     -35.98300000     -71.48990000
H      -46.82130000     -37.74930000     -71.29450000
H      -47.00000000     -36.99330000     -68.95070000
C      -44.72240000     -37.23100000     -73.06460000
H      -45.66180000     -37.70810000     -73.37550000
H      -43.78640000     -37.80990000     -73.35940000
C      -42.87270000     -34.90680000     -68.79870000
H      -42.30300000     -35.56340000     -68.14420000
H      -42.16650000     -34.43190000     -69.42410000
S      -44.64720000     -35.63070000     -74.09480000
S      -43.62800000     -33.65180000     -67.66110000
C      -46.20870000     -34.87490000     -73.41210000
H      -46.50820000     -34.18100000     -74.21950000
H      -46.82950000     -35.77260000     -73.34290000
C      -44.74240000     -32.81840000     -68.92060000
H      -45.21460000     -32.06800000     -68.27320000
H      -45.48220000     -33.54710000     -69.31510000
C      -43.99400000     -32.03180000     -70.09910000
H      -43.03880000     -31.60830000     -69.67400000
H      -43.58120000     -32.75170000     -70.81270000
C      -46.06240000     -34.05260000     -72.09520000
H      -44.98950000     -34.04530000     -71.81410000
H      -46.60640000     -34.44150000     -71.25240000
C      -46.51090000     -32.62630000     -72.31880000
C      -47.63000000     -32.33650000     -73.16120000
C      -45.91530000     -31.37810000     -71.70880000
H      -48.02410000     -33.04110000     -73.89320000
C      -46.52740000     -30.29460000     -72.32670000
C      -44.87750000     -30.98700000     -70.75930000
C      -44.77810000     -29.64110000     -70.66540000
S      -47.69870000     -30.59950000     -73.60060000
S      -45.80850000     -28.77540000     -71.80360000
H      -44.02120000     -28.99160000     -70.09620000
