40
Properties=species:S:1:pos:R:3 #=T CELL(abcABC):=T 1.889726e+02=T 90.00000=T Traj:=T positionsangstrom=T Step:=T 0=T Bead:=T pbc="F F F"
C      -44.52250000     -30.74890000     -73.59160000
C      -44.73570000     -31.28280000     -72.30840000
C      -44.02220000     -32.38990000     -71.96270000
C      -42.97590000     -32.90430000     -72.77840000
C      -42.69770000     -32.32450000     -74.00400000
C      -43.47200000     -31.17970000     -74.35850000
H      -45.16300000     -29.92730000     -73.94090000
H      -44.21450000     -32.95020000     -71.01730000
H      -42.01270000     -32.70880000     -74.70640000
H      -43.25260000     -30.53900000     -75.19390000
C      -42.18230000     -34.08400000     -72.30070000
H      -42.18710000     -34.07450000     -71.21830000
H      -41.16960000     -33.93710000     -72.64190000
C      -45.83400000     -30.56610000     -71.52340000
H      -45.77430000     -30.63330000     -70.42700000
H      -45.84020000     -29.48150000     -71.75300000
S      -42.71390000     -35.81700000     -73.03400000
S      -47.63990000     -30.89300000     -71.96740000
C      -44.47100000     -35.48560000     -73.27260000
H      -44.56580000     -34.41010000     -73.37610000
H      -44.75260000     -36.07280000     -74.17040000
C      -47.59190000     -32.66930000     -72.56350000
H      -46.48670000     -32.99070000     -72.47950000
H      -47.94610000     -32.66030000     -73.55920000
C      -48.40430000     -33.66140000     -71.70980000
H      -49.40320000     -33.33020000     -71.58390000
H      -48.37040000     -34.63050000     -72.27700000
C      -45.51340000     -35.89270000     -72.13910000
H      -45.47830000     -36.97070000     -72.04430000
H      -46.47010000     -35.66130000     -72.63580000
C      -45.41210000     -35.15370000     -70.80680000
C      -44.20020000     -35.30960000     -70.13780000
C      -46.41660000     -34.36980000     -70.08500000
H      -43.33580000     -35.85660000     -70.45020000
C      -45.92880000     -34.04980000     -68.82530000
C      -47.72650000     -33.74940000     -70.32800000
C      -48.20830000     -32.99170000     -69.22520000
S      -44.26590000     -34.51040000     -68.52970000
S      -47.06430000     -33.13040000     -67.85940000
H      -49.07950000     -32.32410000     -69.20890000
