40
Properties=species:S:1:pos:R:3 #=T CELL(abcABC):=T 1.889726e+02=T 90.00000=T Traj:=T positionsangstrom=T Step:=T 0=T Bead:=T pbc="F F F"
C      -44.53810000     -30.86670000     -73.50650000
C      -44.69180000     -31.27100000     -72.18930000
C      -43.68670000     -32.09660000     -71.62350000
C      -42.65610000     -32.64390000     -72.48340000
C      -42.51790000     -32.05590000     -73.74030000
C      -43.46070000     -31.23850000     -74.30670000
H      -45.25130000     -30.16650000     -73.90080000
H      -43.85610000     -32.63590000     -70.71690000
H      -41.62820000     -32.39550000     -74.36020000
H      -43.37190000     -30.92540000     -75.37530000
C      -41.71780000     -33.82640000     -72.27600000
H      -41.36090000     -34.02470000     -71.22960000
H      -40.83220000     -33.76730000     -72.92350000
C      -45.94920000     -30.88680000     -71.42070000
H      -46.02740000     -31.61160000     -70.60280000
H      -45.93390000     -29.83570000     -71.01400000
S      -42.60210000     -35.45200000     -72.83870000
S      -47.44200000     -30.95120000     -72.42150000
C      -44.34990000     -34.89710000     -73.09580000
H      -44.37860000     -33.84200000     -72.97410000
H      -44.45130000     -35.00610000     -74.14470000
C      -47.44180000     -32.74260000     -72.98090000
H      -46.47490000     -33.11100000     -72.97000000
H      -47.84140000     -32.74630000     -74.00360000
C      -48.24040000     -33.62220000     -72.00990000
H      -49.28350000     -33.26360000     -71.94320000
H      -48.37140000     -34.54350000     -72.46810000
C      -45.40360000     -35.64860000     -72.23340000
H      -45.10620000     -36.71770000     -72.32550000
H      -46.38550000     -35.60600000     -72.72160000
C      -45.46000000     -35.24590000     -70.76580000
C      -44.48870000     -35.56560000     -69.87060000
C      -46.46850000     -34.41190000     -70.15830000
H      -43.58870000     -36.06220000     -70.19040000
C      -46.22170000     -34.22120000     -68.81310000
C      -47.59890000     -33.68270000     -70.56490000
C      -48.22230000     -32.99140000     -69.52660000
S      -44.78590000     -35.05250000     -68.23580000
S      -47.37680000     -33.25040000     -68.00590000
H      -49.04480000     -32.29960000     -69.51120000
