40
Properties=species:S:1:pos:R:3 #=T CELL(abcABC):=T 1.889726e+02=T 90.00000=T Traj:=T positionsangstrom=T Step:=T 0=T Bead:=T pbc="F F F"
C      -44.42740000     -30.79250000     -73.54980000
C      -44.66840000     -31.24720000     -72.27310000
C      -43.75840000     -32.23720000     -71.80860000
C      -42.70470000     -32.69190000     -72.58050000
C      -42.59610000     -32.27400000     -73.92640000
C      -43.48920000     -31.33610000     -74.43560000
H      -45.17590000     -30.19180000     -74.04130000
H      -43.85870000     -32.52610000     -70.79840000
H      -41.86520000     -32.77100000     -74.55850000
H      -43.45070000     -30.94150000     -75.48340000
C      -42.04600000     -33.92510000     -72.03060000
H      -42.19090000     -33.93940000     -70.93100000
H      -40.95660000     -34.00730000     -72.15510000
C      -45.75040000     -30.87950000     -71.28310000
H      -45.57920000     -31.46550000     -70.36830000
H      -45.70980000     -29.83970000     -71.04810000
S      -42.71290000     -35.44360000     -72.81040000
S      -47.45880000     -31.06160000     -72.12370000
C      -44.52170000     -35.17520000     -73.36490000
H      -44.78990000     -34.19230000     -73.73820000
H      -44.67520000     -35.91660000     -74.21710000
C      -47.62210000     -32.79770000     -72.72910000
H      -46.61700000     -33.29500000     -72.96250000
H      -47.99000000     -32.67880000     -73.74180000
C      -48.39050000     -33.74800000     -71.87790000
H      -49.44300000     -33.45740000     -71.71670000
H      -48.40550000     -34.71940000     -72.42470000
C      -45.55640000     -35.60540000     -72.32660000
H      -45.55210000     -36.69150000     -72.19760000
H      -46.56410000     -35.31510000     -72.67650000
C      -45.45960000     -35.11630000     -70.90010000
C      -44.43620000     -35.47810000     -70.03850000
C      -46.46980000     -34.35250000     -70.16640000
H      -43.63270000     -35.97710000     -70.54920000
C      -46.01730000     -34.00580000     -68.88890000
C      -47.71440000     -33.74200000     -70.50340000
C      -48.30390000     -33.19350000     -69.33720000
S      -44.45810000     -34.74680000     -68.45190000
S      -47.19000000     -33.13370000     -67.96250000
H      -49.28500000     -32.69270000     -69.22540000
