40
Properties=species:S:1:pos:R:3 #=T CELL(abcABC):=T 1.889726e+02=T 90.00000=T Traj:=T positionsangstrom=T Step:=T 0=T Bead:=T pbc="F F F"
C      -45.58240000     -36.05100000     -68.95040000
C      -44.24800000     -35.90080000     -69.44010000
C      -43.99160000     -36.35140000     -70.74360000
C      -45.00920000     -36.94240000     -71.53200000
C      -46.25480000     -37.19610000     -70.96440000
C      -46.50120000     -36.80080000     -69.64460000
H      -45.83920000     -35.66300000     -67.99630000
H      -42.98160000     -36.16120000     -71.13500000
H      -47.04050000     -37.61970000     -71.57510000
H      -47.54020000     -36.81640000     -69.28720000
C      -44.94300000     -37.38560000     -72.93780000
H      -45.86190000     -38.01720000     -73.21370000
H      -44.00560000     -37.96370000     -73.08900000
C      -43.20650000     -35.26570000     -68.54730000
H      -42.81720000     -35.85460000     -67.70100000
H      -42.33220000     -34.94890000     -69.14410000
S      -44.73110000     -36.00030000     -74.12800000
S      -43.68650000     -33.63990000     -67.78290000
C      -46.06530000     -34.74450000     -73.77840000
H      -46.18100000     -34.18310000     -74.65490000
H      -46.92760000     -35.34940000     -73.52050000
C      -44.54480000     -32.73830000     -69.08460000
H      -44.84780000     -31.80670000     -68.59310000
H      -45.49810000     -33.23640000     -69.31840000
C      -43.79000000     -32.24690000     -70.26290000
H      -42.82140000     -31.78230000     -69.82030000
H      -43.52520000     -33.14090000     -70.95660000
C      -45.66530000     -33.74410000     -72.64350000
H      -44.57060000     -33.47650000     -72.69940000
H      -45.82350000     -34.22220000     -71.68080000
C      -46.29870000     -32.39490000     -72.66640000
C      -47.37360000     -31.89980000     -73.41470000
C      -45.76660000     -31.29410000     -71.92570000
H      -47.99560000     -32.58520000     -73.98980000
C      -46.33580000     -30.05730000     -72.19920000
C      -44.62040000     -31.19040000     -70.95470000
C      -44.46160000     -29.90200000     -70.58680000
S      -47.72600000     -30.23230000     -73.27470000
S      -45.57680000     -28.77010000     -71.33300000
H      -43.63790000     -29.53160000     -69.91830000
