40
Properties=species:S:1:pos:R:3 #=T CELL(abcABC):=T 1.889726e+02=T 90.00000=T Traj:=T positionsangstrom=T Step:=T 0=T Bead:=T pbc="F F F"
C      -48.55740000     -35.38230000     -69.85850000
C      -48.75160000     -34.39460000     -70.85880000
C      -48.51200000     -33.01640000     -70.59860000
C      -47.99260000     -32.69650000     -69.30990000
C      -47.81390000     -33.63400000     -68.28020000
C      -48.07700000     -34.96960000     -68.56690000
H      -48.81480000     -36.47050000     -69.94690000
H      -48.65480000     -32.28160000     -71.36480000
H      -47.33120000     -33.41140000     -67.35200000
H      -47.82870000     -35.73110000     -67.84340000
C      -47.78950000     -31.17670000     -68.95060000
H      -47.29860000     -31.07250000     -68.04110000
H      -48.86700000     -30.84540000     -68.96280000
C      -49.23110000     -34.92340000     -72.27050000
H      -49.54910000     -35.91410000     -72.27810000
H      -50.13020000     -34.26300000     -72.62310000
S      -46.87770000     -30.19480000     -70.20750000
S      -47.83260000     -35.00980000     -73.53470000
C      -45.19180000     -31.10590000     -70.18730000
H      -44.52700000     -30.49050000     -69.54700000
H      -45.41410000     -32.09860000     -69.67940000
C      -46.33290000     -34.44260000     -72.56320000
H      -46.13050000     -35.24570000     -71.83200000
H      -46.44790000     -33.56140000     -71.98490000
C      -45.04980000     -34.26000000     -73.44080000
H      -45.19420000     -34.92490000     -74.31460000
H      -45.03780000     -33.32760000     -73.91920000
C      -44.68110000     -31.36620000     -71.63760000
H      -44.60600000     -30.41610000     -72.13590000
H      -45.43100000     -31.95230000     -72.14800000
C      -43.38500000     -32.07110000     -71.57850000
C      -42.33570000     -31.47500000     -70.97610000
C      -43.11160000     -33.43240000     -72.02800000
H      -42.30510000     -30.47430000     -70.59160000
C      -41.77040000     -33.78120000     -71.75470000
C      -43.76040000     -34.50160000     -72.73350000
C      -42.94910000     -35.55380000     -73.04370000
S      -40.86210000     -32.49610000     -71.05320000
S      -41.32760000     -35.39570000     -72.34120000
H      -43.32120000     -36.42370000     -73.60820000
