40
Properties=species:S:1:pos:R:3 #=T CELL(abcABC):=T 1.889726e+02=T 90.00000=T Traj:=T positionsangstrom=T Step:=T 0=T Bead:=T pbc="F F F"
C      -48.33230000     -35.42810000     -70.00090000
C      -48.76170000     -34.47520000     -70.92290000
C      -48.63060000     -33.11970000     -70.71520000
C      -48.03220000     -32.67020000     -69.46520000
C      -47.62780000     -33.55120000     -68.50630000
C      -47.89520000     -34.91440000     -68.72390000
H      -48.47470000     -36.57720000     -70.15740000
H      -49.13580000     -32.39860000     -71.42710000
H      -47.36780000     -33.30960000     -67.50010000
H      -47.78120000     -35.64400000     -67.87200000
C      -47.99220000     -31.21630000     -69.23840000
H      -47.64920000     -30.81380000     -68.27620000
H      -48.96670000     -30.65810000     -69.22450000
C      -49.22050000     -34.88500000     -72.28420000
H      -49.53310000     -35.92670000     -72.40800000
H      -49.99760000     -34.18360000     -72.55170000
S      -46.95760000     -30.21170000     -70.45500000
S      -47.80450000     -34.64630000     -73.47960000
C      -45.33460000     -31.08870000     -70.19910000
H      -44.67700000     -30.46990000     -69.62590000
H      -45.47590000     -32.00490000     -69.64660000
C      -46.26500000     -34.69940000     -72.46580000
H      -46.20030000     -35.73490000     -72.08750000
H      -46.40000000     -34.09210000     -71.56680000
C      -45.10580000     -34.29760000     -73.43500000
H      -45.03880000     -34.96380000     -74.28260000
H      -45.35220000     -33.23050000     -73.75630000
C      -44.66000000     -31.34150000     -71.60610000
H      -44.61830000     -30.40630000     -72.17130000
H      -45.29350000     -31.98410000     -72.19920000
C      -43.24160000     -31.98860000     -71.53650000
C      -42.17910000     -31.52280000     -70.84670000
C      -43.02480000     -33.37780000     -71.94630000
H      -41.96650000     -30.52350000     -70.42420000
C      -41.70920000     -33.83680000     -71.71670000
C      -43.70420000     -34.37430000     -72.71260000
C      -43.06970000     -35.54990000     -72.89720000
S      -40.86700000     -32.65410000     -70.78640000
S      -41.44640000     -35.51420000     -72.18210000
H      -43.41360000     -36.37990000     -73.48820000
