40
Properties=species:S:1:pos:R:3 #=T CELL(abcABC):=T 1.889726e+02=T 90.00000=T Traj:=T positionsangstrom=T Step:=T 0=T Bead:=T pbc="F F F"
C      -43.71250000     -34.16140000     -68.77360000
C      -45.12090000     -34.06790000     -68.98530000
C      -45.58900000     -32.86900000     -69.58470000
C      -44.73090000     -31.82250000     -69.88070000
C      -43.35150000     -31.88640000     -69.53290000
C      -42.82970000     -33.09850000     -69.01970000
H      -43.37510000     -35.09320000     -68.29790000
H      -46.64750000     -32.81230000     -69.81280000
H      -42.71300000     -31.06310000     -69.69640000
H      -41.79380000     -33.18580000     -68.74530000
C      -45.30370000     -30.44500000     -70.39140000
H      -45.06340000     -30.16630000     -71.49670000
H      -44.94020000     -29.60170000     -69.78710000
C      -46.08390000     -35.09580000     -68.51090000
H      -45.61670000     -35.62040000     -67.59320000
H      -46.95210000     -34.61610000     -68.00580000
S      -47.11080000     -30.37800000     -70.36970000
S      -46.73110000     -36.36920000     -69.77950000
C      -47.43330000     -30.60400000     -72.19850000
H      -48.48610000     -30.26010000     -72.23100000
H      -46.81360000     -29.81780000     -72.66020000
C      -47.73920000     -35.29620000     -70.84660000
H      -47.76980000     -34.26490000     -70.51060000
H      -48.77880000     -35.66230000     -70.85660000
C      -47.29060000     -35.40040000     -72.30650000
H      -47.41090000     -36.40730000     -72.68670000
H      -47.94200000     -34.70590000     -72.92050000
C      -47.28140000     -31.93460000     -72.94970000
H      -47.74350000     -31.76660000     -74.01400000
H      -47.92450000     -32.77730000     -72.50640000
C      -45.80180000     -32.40130000     -73.08470000
C      -44.85530000     -31.51240000     -73.54050000
C      -45.24110000     -33.74400000     -72.86830000
H      -45.06310000     -30.52710000     -73.79390000
C      -43.86370000     -33.75400000     -73.04400000
C      -45.76650000     -35.02320000     -72.40890000
C      -44.79820000     -35.99800000     -72.29150000
S      -43.26400000     -32.27360000     -73.72910000
S      -43.19350000     -35.33480000     -72.68490000
H      -44.98600000     -37.06710000     -71.95560000
