40
Properties=species:S:1:pos:R:3 #=T CELL(abcABC):=T 1.889726e+02=T 90.00000=T Traj:=T positionsangstrom=T Step:=T 0=T Bead:=T pbc="F F F"
C      -45.79340000     -36.20280000     -68.82810000
C      -44.51500000     -35.97810000     -69.40140000
C      -44.32400000     -36.40400000     -70.75120000
C      -45.35750000     -36.82300000     -71.58580000
C      -46.62240000     -37.07260000     -70.95810000
C      -46.74820000     -36.81850000     -69.58570000
H      -46.00670000     -35.96260000     -67.82210000
H      -43.34610000     -36.32410000     -71.16690000
H      -47.35450000     -37.68160000     -71.48060000
H      -47.64400000     -37.19510000     -69.11000000
C      -44.94510000     -37.23810000     -72.97150000
H      -45.62540000     -37.94760000     -73.38610000
H      -43.96440000     -37.65890000     -72.88010000
C      -43.35250000     -35.35170000     -68.57780000
H      -43.12610000     -35.92650000     -67.68970000
H      -42.43920000     -35.35750000     -69.19470000
S      -44.63960000     -35.93530000     -74.20930000
S      -43.70060000     -33.69420000     -67.86820000
C      -45.97360000     -34.60740000     -73.91830000
H      -46.01970000     -34.05710000     -74.92450000
H      -47.03020000     -34.96970000     -73.73490000
C      -44.60670000     -32.81320000     -69.20050000
H      -45.07940000     -32.00980000     -68.60260000
H      -45.29560000     -33.58440000     -69.59280000
C      -43.70180000     -32.37000000     -70.38580000
H      -42.71360000     -32.14860000     -70.12880000
H      -43.50880000     -33.22020000     -70.98600000
C      -45.54830000     -33.76820000     -72.72140000
H      -44.43230000     -33.73730000     -72.80260000
H      -45.71520000     -34.27380000     -71.79680000
C      -46.07300000     -32.34600000     -72.67740000
C      -47.15840000     -31.95470000     -73.46400000
C      -45.56820000     -31.30110000     -71.90000000
H      -47.63630000     -32.49350000     -74.30460000
C      -46.22350000     -30.08420000     -72.06140000
C      -44.45740000     -31.16540000     -70.97950000
C      -44.24900000     -29.86820000     -70.64080000
S      -47.60080000     -30.19500000     -73.12560000
S      -45.56480000     -28.73790000     -71.15400000
H      -43.47870000     -29.63390000     -69.87310000
