40
Properties=species:S:1:pos:R:3 #=T CELL(abcABC):=T 1.889726e+02=T 90.00000=T Traj:=T positionsangstrom=T Step:=T 0=T Bead:=T pbc="F F F"
C      -48.92420000     -35.36510000     -69.78730000
C      -48.69260000     -34.23080000     -70.63050000
C      -48.19530000     -33.03880000     -70.07080000
C      -47.90790000     -32.93260000     -68.70180000
C      -48.03060000     -34.10310000     -67.94810000
C      -48.65940000     -35.25340000     -68.45710000
H      -49.45110000     -36.19230000     -70.20480000
H      -48.03700000     -32.16490000     -70.74200000
H      -47.92550000     -34.10190000     -66.87370000
H      -48.90800000     -36.01660000     -67.68710000
C      -47.33300000     -31.73280000     -68.04860000
H      -46.68960000     -32.05450000     -67.22320000
H      -48.00410000     -31.03420000     -67.55990000
C      -49.00160000     -34.29220000     -72.08950000
H      -50.07660000     -34.59750000     -72.22920000
H      -48.85040000     -33.30090000     -72.60310000
S      -46.41800000     -30.58150000     -69.32140000
S      -48.01870000     -35.55690000     -73.09070000
C      -45.07170000     -31.66150000     -70.06070000
H      -44.38120000     -31.70770000     -69.29350000
H      -45.35670000     -32.74970000     -70.26920000
C      -46.21210000     -35.14710000     -72.59610000
H      -45.61250000     -35.95420000     -72.78660000
H      -46.28960000     -34.98410000     -71.51120000
C      -45.52640000     -33.95010000     -73.19140000
H      -45.76040000     -33.88310000     -74.20700000
H      -45.88870000     -32.96490000     -72.69620000
C      -44.54570000     -31.06930000     -71.38400000
H      -44.52030000     -30.02450000     -71.27320000
H      -45.33350000     -31.14290000     -72.12280000
C      -43.24920000     -31.73900000     -71.74660000
C      -42.04270000     -31.26020000     -71.33260000
C      -43.15550000     -33.03250000     -72.41690000
H      -41.85270000     -30.25240000     -70.93590000
C      -41.82180000     -33.42430000     -72.56450000
C      -44.04440000     -34.05620000     -73.02650000
C      -43.33300000     -35.07120000     -73.59270000
S      -40.69740000     -32.28880000     -71.90390000
S      -41.60660000     -34.97180000     -73.31030000
H      -43.60370000     -35.96330000     -74.19370000
