40
Properties=species:S:1:pos:R:3 #=T CELL(abcABC):=T 1.889726e+02=T 90.00000=T Traj:=T positionsangstrom=T Step:=T 0=T Bead:=T pbc="F F F"
C      -48.51140000     -35.41050000     -69.92280000
C      -48.59070000     -34.13090000     -70.57740000
C      -48.15320000     -33.03370000     -69.83740000
C      -47.67490000     -33.20880000     -68.56120000
C      -47.59360000     -34.44580000     -67.94050000
C      -48.10260000     -35.54430000     -68.63040000
H      -48.82390000     -36.22330000     -70.60410000
H      -48.14770000     -31.97900000     -70.23740000
H      -47.27270000     -34.62010000     -66.90170000
H      -48.09400000     -36.53880000     -68.12010000
C      -47.24250000     -31.94790000     -67.91780000
H      -46.73650000     -32.26940000     -66.95400000
H      -48.17890000     -31.37640000     -67.57750000
C      -48.94950000     -33.95510000     -72.04670000
H      -49.99190000     -33.97300000     -72.22350000
H      -48.58810000     -32.99940000     -72.30120000
S      -46.29390000     -30.68860000     -68.92680000
S      -48.11470000     -35.32040000     -73.07170000
C      -44.98200000     -31.82720000     -69.61480000
H      -44.21400000     -31.92510000     -68.86470000
H      -45.49410000     -32.80260000     -69.73140000
C      -46.34030000     -35.18020000     -72.43720000
H      -45.92600000     -35.92180000     -73.08780000
H      -46.10880000     -35.56160000     -71.38220000
C      -45.73710000     -33.77230000     -72.73860000
H      -46.30780000     -33.30830000     -73.51460000
H      -45.93890000     -33.13550000     -71.84910000
C      -44.48190000     -31.20360000     -70.94790000
H      -44.21250000     -30.18290000     -70.74660000
H      -45.38080000     -31.09770000     -71.62430000
C      -43.26940000     -31.93100000     -71.52500000
C      -42.00280000     -31.39210000     -71.37720000
C      -43.25260000     -33.03330000     -72.46780000
H      -41.79660000     -30.48410000     -70.84320000
C      -41.99550000     -33.39800000     -72.91810000
C      -44.23990000     -33.93350000     -72.95160000
C      -43.73290000     -34.89340000     -73.76730000
S      -40.73900000     -32.28410000     -72.27280000
S      -41.95940000     -34.74500000     -74.01590000
H      -44.33660000     -35.67250000     -74.29340000
