40
Properties=species:S:1:pos:R:3 #=T CELL(abcABC):=T 1.889726e+02=T 90.00000=T Traj:=T positionsangstrom=T Step:=T 0=T Bead:=T pbc="F F F"
C      -48.45220000     -35.50110000     -69.80940000
C      -48.61190000     -34.29680000     -70.52670000
C      -48.21850000     -33.08420000     -69.84890000
C      -47.68640000     -33.20200000     -68.58030000
C      -47.57450000     -34.43280000     -67.90030000
C      -47.96910000     -35.61830000     -68.47100000
H      -48.83230000     -36.35760000     -70.30010000
H      -48.29710000     -32.14900000     -70.42140000
H      -47.08290000     -34.40540000     -66.95320000
H      -47.85660000     -36.57060000     -67.83050000
C      -47.25260000     -31.97030000     -67.86300000
H      -46.70410000     -32.25450000     -66.99340000
H      -48.10390000     -31.39960000     -67.61580000
C      -49.18250000     -34.26490000     -71.90490000
H      -50.21750000     -34.71370000     -71.96500000
H      -49.30700000     -33.21230000     -72.35520000
S      -46.22610000     -30.79090000     -68.79750000
S      -48.19420000     -35.20570000     -73.19940000
C      -45.00230000     -31.95440000     -69.61150000
H      -44.18130000     -32.19280000     -68.89520000
H      -45.45210000     -32.89510000     -69.86390000
C      -46.45790000     -35.21770000     -72.52830000
H      -45.98230000     -36.12240000     -72.98150000
H      -46.35390000     -35.38840000     -71.45430000
C      -45.76320000     -33.85120000     -72.86010000
H      -46.17320000     -33.30900000     -73.68110000
H      -45.92360000     -33.25690000     -71.94200000
C      -44.46870000     -31.17090000     -70.91250000
H      -44.15050000     -30.18240000     -70.54900000
H      -45.26200000     -31.09340000     -71.65280000
C      -43.26030000     -31.84830000     -71.55010000
C      -41.96210000     -31.45110000     -71.24360000
C      -43.24890000     -32.94720000     -72.54460000
H      -41.69630000     -30.73670000     -70.56850000
C      -41.96030000     -33.22490000     -73.06020000
C      -44.21560000     -33.89210000     -73.08940000
C      -43.61450000     -34.80260000     -73.87060000
S      -40.74060000     -32.21430000     -72.23500000
S      -41.92050000     -34.58970000     -74.06920000
H      -44.20370000     -35.55300000     -74.44190000
