40
Properties=species:S:1:pos:R:3 #=T CELL(abcABC):=T 1.889726e+02=T 90.00000=T Traj:=T positionsangstrom=T Step:=T 0=T Bead:=T pbc="F F F"
C      -43.00380000     -29.72240000     -72.35490000
C      -44.25950000     -30.35950000     -72.25240000
C      -44.47380000     -31.28900000     -71.21760000
C      -43.47800000     -31.57660000     -70.31110000
C      -42.18910000     -30.95440000     -70.49280000
C      -41.96880000     -30.04210000     -71.46660000
H      -42.78830000     -29.04030000     -73.17460000
H      -45.50720000     -31.65790000     -71.08910000
H      -41.43340000     -31.21690000     -69.76170000
H      -40.95270000     -29.67880000     -71.68260000
C      -43.57070000     -32.50680000     -69.12210000
H      -44.56520000     -32.59980000     -68.71250000
H      -42.84450000     -32.10210000     -68.34570000
C      -45.18020000     -30.15520000     -73.38020000
H      -45.65620000     -29.14320000     -73.32380000
H      -44.64500000     -30.27980000     -74.30530000
S      -42.74080000     -34.03750000     -69.68260000
S      -46.57170000     -31.34670000     -73.60560000
C      -43.19690000     -34.33600000     -71.41190000
H      -43.93440000     -33.56580000     -71.84050000
H      -42.33650000     -34.18250000     -71.96360000
C      -45.58060000     -32.90710000     -73.93440000
H      -44.86900000     -33.00160000     -73.12750000
H      -45.00280000     -32.83630000     -74.86290000
C      -46.35590000     -34.27020000     -73.78500000
H      -46.96920000     -34.51050000     -74.62330000
H      -45.58770000     -35.10520000     -73.86270000
C      -43.91840000     -35.66070000     -71.72190000
H      -43.28220000     -36.46460000     -71.29500000
H      -44.00130000     -35.72550000     -72.78570000
C      -45.21510000     -35.71080000     -70.96960000
C      -45.23450000     -36.35230000     -69.74780000
C      -46.43930000     -35.04660000     -71.28700000
H      -44.38850000     -36.68220000     -69.26170000
C      -47.36580000     -35.31880000     -70.25490000
C      -47.05440000     -34.34610000     -72.44150000
C      -48.34800000     -33.95250000     -72.19980000
S      -46.74500000     -36.17860000     -68.92890000
S      -48.98360000     -34.64830000     -70.69490000
H      -49.09700000     -33.49730000     -72.79340000
