40
Properties=species:S:1:pos:R:3 #=T CELL(abcABC):=T 1.889726e+02=T 90.00000=T Traj:=T positionsangstrom=T Step:=T 0=T Bead:=T pbc="F F F"
C      -45.62860000     -29.59580000     -70.58010000
C      -45.94450000     -30.97150000     -70.76620000
C      -45.11170000     -31.93560000     -70.16970000
C      -43.94690000     -31.55370000     -69.53480000
C      -43.60530000     -30.18970000     -69.43670000
C      -44.44870000     -29.15340000     -69.95560000
H      -46.32800000     -28.89150000     -71.03980000
H      -45.43890000     -32.96770000     -70.20250000
H      -42.68570000     -29.93980000     -68.84490000
H      -44.28300000     -28.09790000     -69.80010000
C      -43.02510000     -32.67040000     -69.10960000
H      -43.69490000     -33.54030000     -68.74710000
H      -42.37130000     -32.41530000     -68.32100000
C      -47.23450000     -31.37790000     -71.39810000
H      -47.45830000     -32.39650000     -71.18640000
H      -48.08390000     -30.76580000     -71.16560000
S      -41.77800000     -33.48300000     -70.31640000
S      -47.22170000     -31.15430000     -73.18110000
C      -42.56790000     -33.61480000     -72.08050000
H      -43.25100000     -32.83840000     -72.21260000
H      -41.70460000     -33.40220000     -72.72900000
C      -45.73470000     -32.11970000     -73.64360000
H      -45.02110000     -32.09120000     -72.82690000
H      -45.19970000     -31.57460000     -74.44230000
C      -45.97440000     -33.54710000     -74.07290000
H      -46.75380000     -33.49090000     -74.87250000
H      -45.01940000     -33.94980000     -74.40950000
C      -43.13490000     -34.99760000     -72.38210000
H      -42.29340000     -35.74480000     -72.20980000
H      -43.39930000     -34.96210000     -73.45590000
C      -44.33040000     -35.50560000     -71.60510000
C      -44.24600000     -36.43180000     -70.61340000
C      -45.68920000     -35.07860000     -71.91540000
H      -43.29290000     -36.84710000     -70.28690000
C      -46.56930000     -35.73010000     -71.03110000
C      -46.45500000     -34.30300000     -72.89300000
C      -47.79140000     -34.14200000     -72.57030000
S      -45.86930000     -37.01790000     -70.16040000
S      -48.23060000     -35.26700000     -71.19050000
H      -48.46710000     -33.68590000     -73.19710000
