40
Properties=species:S:1:pos:R:3 #=T CELL(abcABC):=T 1.889726e+02=T 90.00000=T Traj:=T positionsangstrom=T Step:=T 0=T Bead:=T pbc="F F F"
C      -45.22400000     -29.51990000     -70.71280000
C      -45.88620000     -30.71570000     -70.76330000
C      -45.20530000     -31.83350000     -70.18480000
C      -43.90940000     -31.77040000     -69.65310000
C      -43.25680000     -30.52380000     -69.76010000
C      -43.92020000     -29.40470000     -70.30040000
H      -45.56210000     -28.73500000     -71.33850000
H      -45.76240000     -32.81140000     -70.09660000
H      -42.29600000     -30.32220000     -69.36870000
H      -43.34910000     -28.50460000     -70.35540000
C      -43.10390000     -32.99650000     -69.25850000
H      -43.72430000     -33.86610000     -69.16120000
H      -42.60780000     -32.77040000     -68.34620000
C      -47.18600000     -30.78980000     -71.44310000
H      -47.89970000     -31.56290000     -71.09010000
H      -47.79040000     -29.79620000     -71.44830000
S      -41.79250000     -33.18190000     -70.44750000
S      -47.00380000     -31.25300000     -73.30710000
C      -42.50050000     -33.72890000     -72.01920000
H      -43.23440000     -32.96760000     -72.41290000
H      -41.68600000     -33.82580000     -72.79660000
C      -45.51230000     -32.27850000     -73.42480000
H      -44.92820000     -32.15990000     -72.45660000
H      -44.85850000     -31.79040000     -74.18010000
C      -45.78470000     -33.70980000     -73.92340000
H      -46.30530000     -33.61050000     -74.85360000
H      -44.76590000     -34.17660000     -74.26840000
C      -43.14680000     -35.11000000     -72.09140000
H      -42.43410000     -35.85130000     -71.70650000
H      -43.27940000     -35.31790000     -73.18700000
C      -44.55180000     -35.36670000     -71.38250000
C      -44.54830000     -36.02770000     -70.19380000
C      -45.92920000     -35.12640000     -71.78980000
H      -43.67080000     -36.38150000     -69.63480000
C      -46.84830000     -35.61800000     -70.87020000
C      -46.53690000     -34.60360000     -72.96600000
C      -47.87320000     -34.91270000     -73.03360000
S      -46.12910000     -36.30830000     -69.50080000
S      -48.43060000     -35.71520000     -71.56980000
H      -48.57230000     -34.57960000     -73.83090000
