40
Properties=species:S:1:pos:R:3 #=T CELL(abcABC):=T 1.889726e+02=T 90.00000=T Traj:=T positionsangstrom=T Step:=T 0=T Bead:=T pbc="F F F"
C      -45.12750000     -29.49710000     -71.02870000
C      -45.63540000     -30.84250000     -70.95930000
C      -44.86520000     -31.80940000     -70.39630000
C      -43.60430000     -31.52190000     -69.80620000
C      -43.13170000     -30.20510000     -69.82060000
C      -43.82520000     -29.24670000     -70.56600000
H      -45.80450000     -28.79150000     -71.48660000
H      -45.13690000     -32.84650000     -70.37000000
H      -42.09370000     -30.10520000     -69.36080000
H      -43.32780000     -28.31000000     -70.56670000
C      -42.90630000     -32.62180000     -69.16730000
H      -43.63860000     -33.23140000     -68.53380000
H      -42.20760000     -32.24000000     -68.35890000
C      -46.97980000     -31.09020000     -71.52260000
H      -47.42300000     -31.91430000     -71.02090000
H      -47.64180000     -30.24510000     -71.41110000
S      -41.78520000     -33.56400000     -70.30520000
S      -47.09910000     -31.41660000     -73.35710000
C      -42.65430000     -33.96540000     -71.92690000
H      -43.17960000     -33.14450000     -72.30520000
H      -41.84050000     -34.16400000     -72.61740000
C      -45.52300000     -32.25930000     -73.61000000
H      -44.84020000     -32.01800000     -72.80080000
H      -45.10590000     -31.87830000     -74.45970000
C      -45.54200000     -33.77830000     -73.91530000
H      -45.81490000     -33.99480000     -74.86630000
H      -44.51730000     -34.09930000     -73.79820000
C      -43.34870000     -35.28750000     -71.85830000
H      -42.70150000     -35.99880000     -71.37280000
H      -43.52970000     -35.73470000     -72.87770000
C      -44.63770000     -35.32940000     -71.12220000
C      -44.77350000     -35.90220000     -69.87710000
C      -45.93450000     -35.15650000     -71.71440000
H      -43.94310000     -36.37110000     -69.34080000
C      -46.97120000     -35.69890000     -70.93590000
C      -46.37860000     -34.57480000     -72.96920000
C      -47.76840000     -34.64090000     -73.01480000
S      -46.44720000     -36.24340000     -69.33420000
S      -48.56830000     -35.45010000     -71.69780000
H      -48.36280000     -34.33190000     -73.90880000
