40
Properties=species:S:1:pos:R:3 #=T CELL(abcABC):=T 1.889726e+02=T 90.00000=T Traj:=T positionsangstrom=T Step:=T 0=T Bead:=T pbc="F F F"
C      -45.55050000     -29.53330000     -70.40770000
C      -45.90200000     -30.83950000     -70.76220000
C      -45.03440000     -31.89360000     -70.41220000
C      -43.85640000     -31.64480000     -69.74730000
C      -43.43350000     -30.31680000     -69.66200000
C      -44.27710000     -29.28430000     -69.89600000
H      -46.29820000     -28.69940000     -70.57250000
H      -45.39200000     -32.92560000     -70.58410000
H      -42.48470000     -30.13380000     -69.13920000
H      -43.92990000     -28.23950000     -69.86310000
C      -42.96600000     -32.66850000     -69.13610000
H      -43.59330000     -33.43560000     -68.71550000
H      -42.33040000     -32.16440000     -68.41660000
C      -47.21480000     -31.13460000     -71.39940000
H      -47.63830000     -32.08300000     -70.89870000
H      -47.96410000     -30.39310000     -71.07580000
S      -41.63680000     -33.42320000     -70.32420000
S      -47.14170000     -30.99430000     -73.24540000
C      -42.74680000     -33.68080000     -71.83120000
H      -43.66050000     -33.13510000     -71.66550000
H      -42.27850000     -33.18790000     -72.71440000
C      -45.68420000     -31.97240000     -73.80080000
H      -44.80720000     -31.71670000     -73.17830000
H      -45.43640000     -31.50560000     -74.80720000
C      -45.82990000     -33.49640000     -73.90610000
H      -46.30940000     -33.82840000     -74.94380000
H      -44.84910000     -33.88080000     -73.90400000
C      -43.17360000     -35.08940000     -72.28580000
H      -42.40190000     -35.79760000     -71.91430000
H      -43.15760000     -35.17070000     -73.35300000
C      -44.49590000     -35.62810000     -71.63910000
C      -44.44180000     -36.56120000     -70.66740000
C      -45.84630000     -35.22660000     -71.95030000
H      -43.53860000     -37.01380000     -70.30420000
C      -46.68180000     -35.80790000     -71.00390000
C      -46.53100000     -34.40670000     -72.86230000
C      -47.87160000     -34.53370000     -72.73910000
S      -45.92180000     -36.75110000     -69.81080000
S      -48.36400000     -35.46140000     -71.35570000
H      -48.61720000     -34.04870000     -73.29380000
