40
Properties=species:S:1:pos:R:3 #=T CELL(abcABC):=T 1.889726e+02=T 90.00000=T Traj:=T positionsangstrom=T Step:=T 0=T Bead:=T pbc="F F F"
C      -45.11980000     -29.68410000     -71.33960000
C      -45.53510000     -30.97830000     -71.13840000
C      -44.74900000     -31.89320000     -70.38560000
C      -43.55800000     -31.51020000     -69.81080000
C      -43.04510000     -30.25980000     -70.24870000
C      -43.87290000     -29.29650000     -70.88730000
H      -45.60180000     -28.98290000     -72.06520000
H      -45.15060000     -32.91490000     -70.18100000
H      -42.13690000     -29.92650000     -69.83620000
H      -43.44820000     -28.29190000     -71.03820000
C      -42.68480000     -32.40030000     -68.96350000
H      -43.24540000     -32.91670000     -68.15990000
H      -41.91410000     -31.69460000     -68.58380000
C      -46.84500000     -31.40950000     -71.67910000
H      -47.08640000     -32.45160000     -71.39650000
H      -47.71800000     -30.84480000     -71.29860000
S      -41.83480000     -33.73540000     -69.97410000
S      -46.81040000     -31.40190000     -73.60590000
C      -42.67920000     -34.03830000     -71.61070000
H      -43.38650000     -33.21670000     -71.82820000
H      -41.78730000     -34.07580000     -72.22670000
C      -45.38890000     -32.51240000     -74.02670000
H      -44.75970000     -32.35540000     -73.24430000
H      -44.80150000     -32.14500000     -74.87650000
C      -45.69380000     -34.05120000     -74.03750000
H      -46.37850000     -34.27650000     -74.92480000
H      -44.77490000     -34.55410000     -74.26740000
C      -43.41530000     -35.39900000     -71.74500000
H      -42.76180000     -36.16980000     -71.31430000
H      -43.56540000     -35.63540000     -72.76360000
C      -44.76540000     -35.53520000     -71.11110000
C      -44.93400000     -36.18290000     -69.88130000
C      -46.02680000     -35.13300000     -71.68090000
H      -44.04910000     -36.49550000     -69.32130000
C      -47.07820000     -35.45780000     -70.79990000
C      -46.48360000     -34.46090000     -72.86940000
C      -47.84100000     -34.25620000     -72.85990000
S      -46.59420000     -36.31540000     -69.36170000
S      -48.62330000     -34.79100000     -71.38020000
H      -48.43380000     -33.88260000     -73.67590000
