40
Properties=species:S:1:pos:R:3 #=T CELL(abcABC):=T 1.889726e+02=T 90.00000=T Traj:=T positionsangstrom=T Step:=T 0=T Bead:=T pbc="F F F"
C      -47.87730000     -36.03600000     -70.38350000
C      -48.33790000     -34.72180000     -70.58780000
C      -48.05270000     -33.72860000     -69.62420000
C      -47.19590000     -34.05370000     -68.48590000
C      -46.67050000     -35.32790000     -68.44200000
C      -47.05190000     -36.37080000     -69.27600000
H      -48.14910000     -36.79610000     -71.04500000
H      -48.33060000     -32.66180000     -69.59970000
H      -45.88060000     -35.53960000     -67.72970000
H      -46.59330000     -37.39750000     -69.16690000
C      -46.83480000     -32.99550000     -67.48760000
H      -46.14280000     -33.24790000     -66.72260000
H      -47.65470000     -32.73890000     -66.87950000
C      -49.09750000     -34.39070000     -71.88510000
H      -49.03570000     -35.25890000     -72.57930000
H      -50.18500000     -34.30690000     -71.63540000
S      -45.98330000     -31.45720000     -68.21150000
S      -48.68760000     -32.98090000     -72.87160000
C      -44.64550000     -32.29830000     -69.16340000
H      -43.82450000     -32.38050000     -68.43760000
H      -45.00590000     -33.29950000     -69.43620000
C      -46.95320000     -33.57260000     -73.44350000
H      -46.94460000     -33.69200000     -74.56430000
H      -46.78480000     -34.59480000     -72.96430000
C      -45.92280000     -32.63020000     -72.90040000
H      -46.29700000     -31.58090000     -73.08990000
H      -45.95570000     -32.67780000     -71.82970000
C      -44.22300000     -31.43040000     -70.36900000
H      -43.63300000     -30.55880000     -69.95360000
H      -45.03300000     -30.94200000     -70.90190000
C      -43.15990000     -32.19760000     -71.23380000
C      -41.93490000     -32.61910000     -70.71440000
C      -43.34390000     -32.65220000     -72.56760000
H      -41.44350000     -32.36370000     -69.78500000
C      -42.26220000     -33.40260000     -73.10190000
C      -44.50870000     -32.84730000     -73.39390000
C      -44.21390000     -33.50720000     -74.54790000
S      -40.95550000     -33.49810000     -71.96130000
S      -42.55740000     -34.03140000     -74.68610000
H      -44.97530000     -33.80960000     -75.22090000
