40
Properties=species:S:1:pos:R:3 #=T CELL(abcABC):=T 1.889726e+02=T 90.00000=T Traj:=T positionsangstrom=T Step:=T 0=T Bead:=T pbc="F F F"
C      -47.84800000     -36.10320000     -70.43370000
C      -48.32480000     -34.82070000     -70.63040000
C      -47.99590000     -33.78010000     -69.72390000
C      -47.30600000     -34.11730000     -68.57150000
C      -46.81890000     -35.40890000     -68.38200000
C      -47.17300000     -36.38090000     -69.28000000
H      -47.99680000     -36.82110000     -71.20050000
H      -48.26480000     -32.69230000     -69.93830000
H      -46.20230000     -35.63350000     -67.50810000
H      -46.85400000     -37.31860000     -68.94230000
C      -46.99960000     -32.88950000     -67.64880000
H      -46.40310000     -33.22540000     -66.71850000
H      -48.02620000     -32.51040000     -67.32570000
C      -49.19620000     -34.48560000     -71.79250000
H      -49.31310000     -35.32090000     -72.44960000
H      -50.15900000     -34.23210000     -71.42070000
S      -46.13380000     -31.47470000     -68.45380000
S      -48.62190000     -32.87520000     -72.62630000
C      -44.84170000     -32.39610000     -69.35410000
H      -44.10570000     -33.00610000     -68.80520000
H      -45.34100000     -33.04950000     -70.03130000
C      -47.10040000     -33.26260000     -73.56460000
H      -47.13000000     -33.07250000     -74.66220000
H      -46.94750000     -34.27790000     -73.55830000
C      -45.87850000     -32.45010000     -73.02690000
H      -45.92910000     -31.44080000     -73.44860000
H      -45.97460000     -32.37790000     -71.94450000
C      -44.07220000     -31.47230000     -70.31260000
H      -43.53690000     -30.60900000     -69.83460000
H      -44.82870000     -30.94180000     -70.92170000
C      -43.07680000     -32.26240000     -71.12960000
C      -41.85420000     -32.68910000     -70.65660000
C      -43.32380000     -32.86780000     -72.41630000
H      -41.44490000     -32.53830000     -69.66670000
C      -42.21660000     -33.49860000     -72.98200000
C      -44.46000000     -32.87880000     -73.35320000
C      -44.08080000     -33.42040000     -74.54910000
S      -40.91850000     -33.62360000     -71.81750000
S      -42.36330000     -33.88520000     -74.68620000
H      -44.72160000     -33.45290000     -75.45390000
