40
Properties=species:S:1:pos:R:3 #=T CELL(abcABC):=T 1.889726e+02=T 90.00000=T Traj:=T positionsangstrom=T Step:=T 0=T Bead:=T pbc="F F F"
C      -47.85190000     -36.02410000     -70.44540000
C      -48.32790000     -34.70260000     -70.73190000
C      -48.18170000     -33.74880000     -69.72890000
C      -47.45880000     -33.99320000     -68.55500000
C      -46.92880000     -35.34990000     -68.34900000
C      -47.17200000     -36.37860000     -69.26920000
H      -47.87210000     -36.82030000     -71.26430000
H      -48.65930000     -32.78090000     -69.95660000
H      -46.31810000     -35.65080000     -67.50000000
H      -46.82090000     -37.30010000     -69.00950000
C      -47.08890000     -32.94930000     -67.60570000
H      -46.40330000     -33.37220000     -66.92410000
H      -47.94000000     -32.52470000     -67.18070000
C      -49.01640000     -34.36280000     -71.98110000
H      -48.77500000     -35.16820000     -72.71140000
H      -50.14590000     -34.33130000     -71.84120000
S      -46.30210000     -31.59350000     -68.56460000
S      -48.55230000     -32.72980000     -72.76710000
C      -44.92920000     -32.60230000     -69.39990000
H      -44.47230000     -33.16090000     -68.59420000
H      -45.44750000     -33.34460000     -70.02250000
C      -46.90780000     -33.12270000     -73.49940000
H      -47.04620000     -33.08590000     -74.60380000
H      -46.67520000     -34.15000000     -73.16940000
C      -45.78880000     -32.25690000     -72.94690000
H      -45.88240000     -31.29210000     -73.47220000
H      -45.91390000     -32.08410000     -71.82250000
C      -44.03710000     -31.66000000     -70.10550000
H      -43.56670000     -31.15760000     -69.30540000
H      -44.47500000     -30.95100000     -70.80210000
C      -43.00820000     -32.41740000     -70.96400000
C      -41.77220000     -32.85200000     -70.52320000
C      -43.31130000     -32.92510000     -72.35110000
H      -41.28850000     -32.58910000     -69.60060000
C      -42.20590000     -33.51760000     -72.92960000
C      -44.46290000     -32.87950000     -73.30050000
C      -44.02530000     -33.20820000     -74.54640000
S      -40.83300000     -33.62360000     -71.83900000
S      -42.41310000     -33.98350000     -74.64550000
H      -44.56960000     -33.26320000     -75.50800000
