40
Properties=species:S:1:pos:R:3 #=T CELL(abcABC):=T 1.889726e+02=T 90.00000=T Traj:=T positionsangstrom=T Step:=T 0=T Bead:=T pbc="F F F"
C      -45.93980000     -36.23420000     -68.99190000
C      -44.76580000     -36.17220000     -69.73400000
C      -44.76570000     -36.55140000     -71.09250000
C      -45.98430000     -36.84630000     -71.73070000
C      -47.20230000     -36.88720000     -71.01150000
C      -47.15290000     -36.54720000     -69.64120000
H      -45.97480000     -36.03690000     -67.93380000
H      -43.82430000     -36.51340000     -71.63320000
H      -48.13630000     -37.05070000     -71.53610000
H      -48.04400000     -36.58240000     -69.05510000
C      -45.90660000     -37.16540000     -73.19600000
H      -46.88740000     -37.14940000     -73.73310000
H      -45.53220000     -38.12380000     -73.33660000
C      -43.42820000     -35.80350000     -69.10820000
H      -43.19030000     -36.65480000     -68.42550000
H      -42.62640000     -35.73760000     -69.91890000
S      -44.66920000     -36.09930000     -74.10330000
S      -43.60130000     -34.26560000     -68.01380000
C      -45.40690000     -34.41460000     -74.04970000
H      -44.84310000     -33.81910000     -74.68160000
H      -46.46820000     -34.43340000     -74.46480000
C      -44.49290000     -32.98290000     -69.04480000
H      -45.10870000     -32.39190000     -68.30570000
H      -45.19870000     -33.59420000     -69.66690000
C      -43.62000000     -32.04960000     -69.89110000
H      -42.79320000     -31.66060000     -69.32180000
H      -43.14050000     -32.60660000     -70.60110000
C      -45.25570000     -33.68310000     -72.69270000
H      -44.17210000     -33.71470000     -72.34300000
H      -45.81720000     -34.17490000     -71.90270000
C      -45.73320000     -32.21440000     -72.59890000
C      -46.71990000     -31.84920000     -73.48160000
C      -45.32830000     -31.14340000     -71.65400000
H      -47.09650000     -32.58020000     -74.25440000
C      -45.99610000     -29.94660000     -71.94510000
C      -44.39020000     -30.93040000     -70.59630000
C      -44.36940000     -29.67380000     -70.11960000
S      -47.08820000     -30.10730000     -73.25290000
S      -45.61110000     -28.56000000     -70.96620000
H      -43.83440000     -29.18300000     -69.37560000
