40
Properties=species:S:1:pos:R:3 #=T CELL(abcABC):=T 1.889726e+02=T 90.00000=T Traj:=T positionsangstrom=T Step:=T 0=T Bead:=T pbc="F F F"
C      -43.66130000     -35.00120000     -74.26420000
C      -43.09380000     -33.91770000     -73.60630000
C      -43.49800000     -32.63430000     -73.85190000
C      -44.64290000     -32.38780000     -74.56680000
C      -45.27650000     -33.48120000     -75.26170000
C      -44.72700000     -34.77110000     -75.14800000
H      -43.15280000     -35.99610000     -74.28150000
H      -43.06100000     -31.73340000     -73.34930000
H      -46.18480000     -33.40780000     -75.79880000
H      -45.12600000     -35.57070000     -75.79450000
C      -45.28200000     -31.00940000     -74.84920000
H      -46.22230000     -31.19960000     -75.27870000
H      -44.79700000     -30.38020000     -75.55640000
C      -41.88920000     -34.13080000     -72.69050000
H      -40.93840000     -34.24460000     -73.22730000
H      -41.73660000     -33.33600000     -71.95690000
S      -45.42630000     -29.93780000     -73.33380000
S      -42.14210000     -35.64570000     -71.60420000
C      -46.54580000     -30.79940000     -72.19980000
H      -47.18450000     -30.05680000     -71.74460000
H      -47.16140000     -31.49160000     -72.86460000
C      -43.78030000     -35.36050000     -70.83350000
H      -44.09900000     -36.24190000     -70.44520000
H      -44.43150000     -35.08330000     -71.67150000
C      -43.75230000     -34.30790000     -69.73860000
H      -42.99410000     -34.56480000     -68.94570000
H      -43.47150000     -33.31650000     -70.23370000
C      -45.82080000     -31.56040000     -71.08650000
H      -45.19020000     -30.86800000     -70.50670000
H      -45.12070000     -32.21510000     -71.61220000
C      -46.69380000     -32.37750000     -70.14840000
C      -48.02060000     -32.06000000     -70.00190000
C      -46.27750000     -33.45580000     -69.23790000
H      -48.49800000     -31.16790000     -70.35020000
C      -47.35930000     -33.87330000     -68.39560000
C      -45.11110000     -34.23870000     -68.96010000
C      -45.31300000     -35.19650000     -68.02320000
S      -48.86810000     -33.08380000     -68.83230000
S      -46.94720000     -35.10000000     -67.30690000
H      -44.60320000     -35.99200000     -67.79750000
