40
Properties=species:S:1:pos:R:3 #=T CELL(abcABC):=T 1.889726e+02=T 90.00000=T Traj:=T positionsangstrom=T Step:=T 0=T Bead:=T pbc="F F F"
C      -48.04480000     -35.98960000     -70.72350000
C      -48.47040000     -34.70270000     -70.96040000
C      -48.27190000     -33.68600000     -69.99940000
C      -47.71870000     -34.00200000     -68.74370000
C      -47.31560000     -35.32010000     -68.48830000
C      -47.45270000     -36.31850000     -69.51800000
H      -48.03570000     -36.76090000     -71.42860000
H      -48.50450000     -32.68070000     -70.21230000
H      -46.81840000     -35.52180000     -67.53480000
H      -46.96270000     -37.34620000     -69.46860000
C      -47.48470000     -32.87670000     -67.82310000
H      -47.34280000     -33.21320000     -66.80050000
H      -48.27700000     -32.15530000     -67.80170000
C      -49.12490000     -34.38220000     -72.30200000
H      -49.01370000     -35.11010000     -73.04940000
H      -50.21240000     -34.25910000     -72.15080000
S      -46.09060000     -31.81880000     -68.22050000
S      -48.59170000     -32.77430000     -73.05640000
C      -44.91830000     -32.67540000     -69.35630000
H      -44.36570000     -33.36700000     -68.68880000
H      -45.31940000     -33.25900000     -70.17460000
C      -46.77600000     -33.20790000     -73.27350000
H      -46.55110000     -33.57500000     -74.33010000
H      -46.50450000     -34.02990000     -72.58170000
C      -45.67530000     -32.14030000     -72.96980000
H      -45.81990000     -31.32440000     -73.70480000
H      -45.73250000     -31.74200000     -71.94330000
C      -43.92300000     -31.67110000     -69.92740000
H      -43.36520000     -31.08230000     -69.22000000
H      -44.42290000     -30.92320000     -70.54590000
C      -42.97160000     -32.44770000     -70.87830000
C      -41.66110000     -32.72680000     -70.50010000
C      -43.22680000     -32.92310000     -72.19980000
H      -41.36330000     -32.55180000     -69.48240000
C      -42.12420000     -33.56430000     -72.77700000
C      -44.30240000     -32.75800000     -73.17070000
C      -43.90000000     -33.11650000     -74.44010000
S      -40.75000000     -33.59820000     -71.69740000
S      -42.31020000     -33.94000000     -74.49960000
H      -44.47770000     -32.99870000     -75.30390000
