40
Properties=species:S:1:pos:R:3 #=T CELL(abcABC):=T 1.889726e+02=T 90.00000=T Traj:=T positionsangstrom=T Step:=T 0=T Bead:=T pbc="F F F"
C      -43.44490000     -34.78380000     -74.04720000
C      -42.81470000     -33.71020000     -73.36810000
C      -43.24570000     -32.45030000     -73.72640000
C      -44.48790000     -32.31410000     -74.46340000
C      -45.12260000     -33.42090000     -75.06000000
C      -44.52800000     -34.69550000     -74.87560000
H      -43.15080000     -35.83610000     -73.87420000
H      -42.77920000     -31.50460000     -73.29000000
H      -46.02760000     -33.18310000     -75.63240000
H      -44.85830000     -35.63680000     -75.37260000
C      -44.97520000     -30.95140000     -74.78830000
H      -45.98760000     -31.01890000     -75.19330000
H      -44.33230000     -30.30240000     -75.42650000
C      -41.77230000     -33.89890000     -72.32820000
H      -40.84420000     -34.04330000     -72.85780000
H      -41.68700000     -32.94060000     -71.73380000
S      -45.06050000     -29.97990000     -73.16400000
S      -41.98500000     -35.36040000     -71.18160000
C      -46.35750000     -30.93930000     -72.23260000
H      -46.58080000     -30.16970000     -71.48580000
H      -47.30860000     -31.00260000     -72.84820000
C      -43.75090000     -35.24750000     -70.78620000
H      -44.07640000     -36.24770000     -70.56320000
H      -44.43140000     -34.82840000     -71.62130000
C      -43.93610000     -34.32780000     -69.56500000
H      -43.37110000     -34.70470000     -68.77790000
H      -43.65550000     -33.30460000     -69.86020000
C      -45.85660000     -32.14150000     -71.49030000
H      -44.93030000     -31.87880000     -70.90870000
H      -45.47310000     -32.91960000     -72.20990000
C      -46.83490000     -32.75200000     -70.53550000
C      -48.16430000     -32.35440000     -70.49360000
C      -46.55900000     -33.73740000     -69.56290000
H      -48.70120000     -31.59350000     -70.97370000
C      -47.69350000     -34.01310000     -68.79530000
C      -45.35480000     -34.39440000     -69.00960000
C      -45.68630000     -35.11300000     -67.91360000
S      -49.05110000     -33.08600000     -69.23430000
S      -47.37060000     -35.08530000     -67.47360000
H      -45.02760000     -35.76170000     -67.42000000
