40
Properties=species:S:1:pos:R:3 #=T CELL(abcABC):=T 1.889726e+02=T 90.00000=T Traj:=T positionsangstrom=T Step:=T 0=T Bead:=T pbc="F F F"
C      -46.85870000     -30.76110000     -69.16380000
C      -46.72720000     -31.89610000     -69.97750000
C      -45.54330000     -32.64680000     -69.88340000
C      -44.50210000     -32.32920000     -68.97070000
C      -44.71940000     -31.33910000     -68.04240000
C      -45.81040000     -30.54390000     -68.21520000
H      -47.75970000     -30.17750000     -69.09940000
H      -45.33560000     -33.57580000     -70.50000000
H      -44.10670000     -31.12610000     -67.22990000
H      -46.00850000     -29.77360000     -67.51270000
C      -43.37070000     -33.29570000     -68.79460000
H      -43.67300000     -34.30540000     -68.87570000
H      -42.85990000     -33.16640000     -67.87770000
C      -47.82560000     -32.38880000     -70.88050000
H      -47.53170000     -33.38830000     -71.07000000
H      -48.80410000     -32.37160000     -70.39280000
S      -41.86990000     -33.01980000     -69.99130000
S      -47.90910000     -31.28300000     -72.36080000
C      -42.59810000     -32.38750000     -71.56390000
H      -43.55720000     -31.99410000     -71.33190000
H      -41.91640000     -31.56580000     -71.95400000
C      -46.08620000     -31.38050000     -72.94820000
H      -45.32400000     -31.48130000     -72.21150000
H      -46.03740000     -30.38110000     -73.42660000
C      -45.82680000     -32.41430000     -74.02200000
H      -46.23530000     -32.30980000     -75.05070000
H      -44.75030000     -32.46070000     -74.30410000
C      -42.82170000     -33.43160000     -72.65530000
H      -41.91450000     -33.95570000     -72.88320000
H      -43.15120000     -32.90880000     -73.60370000
C      -43.82720000     -34.42230000     -72.13910000
C      -43.45340000     -35.45460000     -71.26420000
C      -45.13320000     -34.55900000     -72.68080000
H      -42.39790000     -35.41220000     -70.77500000
C      -45.77480000     -35.73750000     -72.21140000
C      -46.05390000     -33.84330000     -73.52760000
C      -47.29500000     -34.41820000     -73.71390000
S      -44.76850000     -36.65810000     -71.06050000
S      -47.35850000     -35.94120000     -72.83580000
H      -48.12040000     -33.93860000     -74.29440000
