40
Properties=species:S:1:pos:R:3 #=T CELL(abcABC):=T 1.889726e+02=T 90.00000=T Traj:=T positionsangstrom=T Step:=T 0=T Bead:=T pbc="F F F"
C      -42.87810000     -34.84300000     -74.02230000
C      -42.49570000     -33.74070000     -73.18160000
C      -43.06550000     -32.46150000     -73.51890000
C      -43.94230000     -32.27340000     -74.57320000
C      -44.19730000     -33.35120000     -75.45290000
C      -43.67890000     -34.59800000     -75.17120000
H      -42.48060000     -35.82880000     -73.91420000
H      -42.84940000     -31.60060000     -72.84020000
H      -44.85430000     -33.37230000     -76.33670000
H      -43.83120000     -35.39950000     -75.83580000
C      -44.71330000     -30.99130000     -74.88430000
H      -45.55580000     -31.33420000     -75.40870000
H      -44.05730000     -30.29740000     -75.46400000
C      -41.65500000     -33.91020000     -71.99410000
H      -40.62030000     -34.10010000     -72.32530000
H      -41.72520000     -32.96090000     -71.35450000
S      -45.23940000     -30.06540000     -73.30510000
S      -42.25410000     -35.38110000     -70.97990000
C      -46.66570000     -31.06780000     -72.55010000
H      -47.44570000     -30.41780000     -72.11410000
H      -47.27480000     -31.45620000     -73.39360000
C      -43.96980000     -35.00320000     -70.47140000
H      -44.38280000     -35.94890000     -70.22350000
H      -44.48950000     -34.62970000     -71.33330000
C      -44.10380000     -33.89010000     -69.41870000
H      -43.40630000     -34.05710000     -68.56770000
H      -43.92600000     -32.84620000     -69.82150000
C      -46.03060000     -32.12230000     -71.51350000
H      -45.35890000     -31.56820000     -70.84640000
H      -45.39220000     -32.82100000     -72.05400000
C      -47.04130000     -32.75070000     -70.54160000
C      -48.43370000     -32.78250000     -70.79870000
C      -46.70730000     -33.55700000     -69.42620000
H      -48.98010000     -32.39310000     -71.67680000
C      -47.86130000     -34.02380000     -68.74810000
C      -45.47730000     -34.08740000     -68.85170000
C      -45.72280000     -34.83370000     -67.71460000
S      -49.32700000     -33.58720000     -69.55940000
S      -47.42560000     -34.85400000     -67.27110000
H      -44.99150000     -35.29340000     -67.05620000
