40
Properties=species:S:1:pos:R:3 #=T CELL(abcABC):=T 1.889726e+02=T 90.00000=T Traj:=T positionsangstrom=T Step:=T 0=T Bead:=T pbc="F F F"
C      -43.62140000     -34.94330000     -74.15660000
C      -42.98770000     -33.88350000     -73.53990000
C      -43.47250000     -32.55470000     -73.76970000
C      -44.53510000     -32.31280000     -74.64890000
C      -45.14530000     -33.44560000     -75.24110000
C      -44.76010000     -34.77000000     -74.94840000
H      -43.34990000     -35.94480000     -73.84200000
H      -43.05540000     -31.74990000     -73.17680000
H      -46.04880000     -33.32990000     -75.87070000
H      -45.46050000     -35.46530000     -75.33660000
C      -45.15400000     -30.96350000     -74.78580000
H      -46.19230000     -30.94120000     -75.18710000
H      -44.56390000     -30.54080000     -75.52740000
C      -41.82150000     -34.06100000     -72.58740000
H      -40.84790000     -34.44500000     -73.04000000
H      -41.61420000     -33.14330000     -72.08880000
S      -45.12890000     -29.96500000     -73.19840000
S      -42.00700000     -35.44510000     -71.28930000
C      -46.36520000     -30.86230000     -72.26460000
H      -46.75620000     -30.11320000     -71.51750000
H      -47.23480000     -31.03450000     -72.88050000
C      -43.70580000     -35.31030000     -70.68240000
H      -43.98510000     -36.31520000     -70.20610000
H      -44.31150000     -35.13840000     -71.50550000
C      -43.83380000     -34.26730000     -69.56980000
H      -43.07770000     -34.44860000     -68.78960000
H      -43.65740000     -33.28130000     -69.93180000
C      -45.78670000     -32.02800000     -71.34660000
H      -44.97570000     -31.54760000     -70.72470000
H      -45.33570000     -32.86140000     -71.96020000
C      -46.76830000     -32.54570000     -70.36400000
C      -48.03250000     -32.05110000     -70.22790000
C      -46.47960000     -33.62420000     -69.44420000
H      -48.55170000     -31.45740000     -71.02960000
C      -47.55620000     -33.89880000     -68.58820000
C      -45.24030000     -34.33820000     -69.04200000
C      -45.55690000     -35.21280000     -68.03050000
S      -48.97710000     -32.95710000     -69.00690000
S      -47.24270000     -35.18380000     -67.48400000
H      -44.91620000     -35.91740000     -67.48010000
