40
Properties=species:S:1:pos:R:3 #=T CELL(abcABC):=T 1.889726e+02=T 90.00000=T Traj:=T positionsangstrom=T Step:=T 0=T Bead:=T pbc="F F F"
C      -42.28200000     -34.31390000     -73.64370000
C      -42.38340000     -33.17160000     -72.78000000
C      -43.25530000     -32.16680000     -73.13510000
C      -44.02630000     -32.32610000     -74.34680000
C      -43.93100000     -33.45930000     -75.17420000
C      -43.03610000     -34.44060000     -74.80970000
H      -41.51160000     -35.04300000     -73.29690000
H      -43.22590000     -31.32850000     -72.49240000
H      -44.60690000     -33.50840000     -75.99690000
H      -42.96080000     -35.36410000     -75.44250000
C      -45.00380000     -31.29370000     -74.68810000
H      -45.90180000     -31.79010000     -75.17940000
H      -44.61380000     -30.62110000     -75.44600000
C      -41.62170000     -33.10260000     -71.50160000
H      -40.57390000     -32.80350000     -71.60960000
H      -42.00950000     -32.33720000     -70.86390000
S      -45.57430000     -30.15140000     -73.34990000
S      -41.67300000     -34.67900000     -70.56730000
C      -46.83820000     -31.06920000     -72.48460000
H      -47.57450000     -30.36960000     -71.96390000
H      -47.38790000     -31.62630000     -73.21790000
C      -43.50340000     -34.95570000     -70.34680000
H      -43.56910000     -35.96210000     -69.93570000
H      -43.99540000     -35.01780000     -71.27920000
C      -44.19020000     -33.92130000     -69.48550000
H      -43.58630000     -33.93460000     -68.61130000
H      -44.17320000     -32.98230000     -69.94000000
C      -46.22750000     -31.95470000     -71.42560000
H      -45.63590000     -31.35870000     -70.69850000
H      -45.55980000     -32.62290000     -71.89660000
C      -47.23820000     -32.83350000     -70.71770000
C      -48.58940000     -32.75530000     -70.88650000
C      -46.85910000     -33.80730000     -69.71100000
H      -49.10650000     -32.02830000     -71.56850000
C      -47.99480000     -34.41700000     -69.19990000
C      -45.61890000     -34.32600000     -69.13880000
C      -45.84470000     -35.24700000     -68.22680000
S      -49.49690000     -33.84510000     -69.79810000
S      -47.58790000     -35.54400000     -67.93900000
H      -45.22900000     -35.72230000     -67.45730000
