40
Properties=species:S:1:pos:R:3 #=T CELL(abcABC):=T 1.889726e+02=T 90.00000=T Traj:=T positionsangstrom=T Step:=T 0=T Bead:=T pbc="F F F"
C      -42.20850000     -34.41340000     -73.95300000
C      -42.25490000     -33.33510000     -73.03890000
C      -43.25290000     -32.40340000     -73.22040000
C      -43.97560000     -32.40010000     -74.41020000
C      -43.83870000     -33.35320000     -75.41900000
C      -42.96170000     -34.42150000     -75.10810000
H      -41.47840000     -35.20400000     -73.78090000
H      -43.53970000     -31.66950000     -72.45610000
H      -44.40930000     -33.25820000     -76.34820000
H      -42.87920000     -35.27920000     -75.76200000
C      -44.93120000     -31.29320000     -74.72700000
H      -45.87960000     -31.66010000     -75.15350000
H      -44.56410000     -30.61100000     -75.47190000
C      -41.59810000     -33.36240000     -71.67500000
H      -40.51480000     -33.35300000     -71.79620000
H      -41.92480000     -32.45990000     -71.10340000
S      -45.27590000     -30.20680000     -73.23310000
S      -41.96260000     -34.89340000     -70.59740000
C      -46.72680000     -31.10490000     -72.54350000
H      -47.23010000     -30.47320000     -71.84270000
H      -47.47120000     -31.47560000     -73.26050000
C      -43.77100000     -35.03660000     -70.39090000
H      -43.83520000     -36.04510000     -69.93460000
H      -44.37280000     -35.07300000     -71.39400000
C      -44.30670000     -33.83330000     -69.57470000
H      -43.72590000     -33.61860000     -68.72100000
H      -44.37810000     -32.97250000     -70.19370000
C      -46.29930000     -32.39420000     -71.83200000
H      -45.28290000     -32.23460000     -71.41940000
H      -46.21980000     -33.17540000     -72.59920000
C      -47.26420000     -32.97680000     -70.81860000
C      -48.63670000     -32.66920000     -70.88240000
C      -46.90520000     -33.84030000     -69.70360000
H      -49.14170000     -32.07190000     -71.59800000
C      -48.00470000     -34.26620000     -68.94790000
C      -45.66670000     -34.22300000     -69.09640000
C      -45.85770000     -34.97590000     -67.99650000
S      -49.47700000     -33.58890000     -69.57230000
S      -47.58770000     -35.21000000     -67.53810000
H      -45.09770000     -35.14700000     -67.26790000
