40
Properties=species:S:1:pos:R:3 #=T CELL(abcABC):=T 1.889726e+02=T 90.00000=T Traj:=T positionsangstrom=T Step:=T 0=T Bead:=T pbc="F F F"
C      -42.36940000     -34.59990000     -74.06440000
C      -42.45230000     -33.62170000     -73.01820000
C      -43.23850000     -32.46060000     -73.27620000
C      -43.95330000     -32.29130000     -74.49510000
C      -43.71530000     -33.25650000     -75.56320000
C      -43.04090000     -34.42130000     -75.31280000
H      -41.88410000     -35.55800000     -73.86880000
H      -43.23290000     -31.59440000     -72.64190000
H      -44.12450000     -32.94370000     -76.53650000
H      -42.92940000     -35.21770000     -76.08790000
C      -44.78410000     -31.03160000     -74.78900000
H      -45.58410000     -31.33490000     -75.45890000
H      -44.15500000     -30.30560000     -75.32330000
C      -41.53650000     -33.62890000     -71.79600000
H      -40.47720000     -33.66820000     -72.16210000
H      -41.63140000     -32.64680000     -71.33940000
S      -45.41840000     -30.10780000     -73.27980000
S      -41.80320000     -35.01480000     -70.58110000
C      -46.73150000     -31.17980000     -72.44100000
H      -47.15580000     -30.48340000     -71.65620000
H      -47.55340000     -31.33240000     -73.17240000
C      -43.66230000     -34.94170000     -70.58460000
H      -43.97430000     -35.94750000     -70.25990000
H      -44.02610000     -34.59410000     -71.52530000
C      -44.21140000     -34.06590000     -69.40970000
H      -43.59090000     -34.30260000     -68.46250000
H      -44.00910000     -33.01910000     -69.72710000
C      -46.23730000     -32.35400000     -71.70680000
H      -45.32420000     -32.10150000     -71.15050000
H      -46.00500000     -33.15060000     -72.40600000
C      -47.24120000     -32.99190000     -70.77770000
C      -48.63660000     -32.85370000     -70.90410000
C      -46.89840000     -33.79170000     -69.61330000
H      -49.07510000     -32.12410000     -71.58070000
C      -48.00160000     -34.09100000     -68.81420000
C      -45.65860000     -34.24230000     -68.99860000
C      -45.93630000     -34.93760000     -67.85200000
S      -49.51690000     -33.51770000     -69.61020000
S      -47.68510000     -35.08970000     -67.42730000
H      -45.22450000     -35.37060000     -67.15590000
