40
Properties=species:S:1:pos:R:3 #=T CELL(abcABC):=T 1.889726e+02=T 90.00000=T Traj:=T positionsangstrom=T Step:=T 0=T Bead:=T pbc="F F F"
C      -42.06490000     -34.36390000     -73.73360000
C      -42.23660000     -33.34380000     -72.85020000
C      -43.09870000     -32.26390000     -73.12230000
C      -44.00680000     -32.47190000     -74.15770000
C      -43.95750000     -33.60260000     -75.05660000
C      -42.94520000     -34.55450000     -74.82800000
H      -41.26730000     -35.05920000     -73.43430000
H      -43.18480000     -31.42200000     -72.47650000
H      -44.55020000     -33.69000000     -75.94340000
H      -42.64890000     -35.31990000     -75.60990000
C      -44.99400000     -31.39620000     -74.59140000
H      -45.90230000     -31.85480000     -74.91070000
H      -44.51660000     -30.90050000     -75.47190000
C      -41.36640000     -33.28990000     -71.56800000
H      -40.35330000     -33.39070000     -71.91850000
H      -41.43030000     -32.33380000     -70.99450000
S      -45.63630000     -29.96410000     -73.52770000
S      -41.79310000     -34.76930000     -70.47910000
C      -46.82450000     -30.88070000     -72.40510000
H      -47.27440000     -30.08650000     -71.79360000
H      -47.70160000     -31.24150000     -72.95380000
C      -43.64640000     -34.82110000     -70.64220000
H      -43.90180000     -35.89050000     -70.30120000
H      -43.94030000     -34.59680000     -71.68020000
C      -44.29920000     -33.90120000     -69.62240000
H      -43.79200000     -33.75750000     -68.64450000
H      -44.45530000     -32.86210000     -70.04670000
C      -46.22950000     -32.06590000     -71.63400000
H      -45.47370000     -31.62030000     -71.03850000
H      -45.73490000     -32.77350000     -72.36910000
C      -47.23510000     -32.86690000     -70.75230000
C      -48.60950000     -32.65200000     -70.84140000
C      -46.90370000     -33.83760000     -69.71950000
H      -49.08550000     -31.98510000     -71.57650000
C      -48.00640000     -34.34810000     -69.05700000
C      -45.65940000     -34.37800000     -69.18400000
C      -45.85280000     -35.18660000     -68.16140000
S      -49.53980000     -33.77450000     -69.76040000
S      -47.58100000     -35.45890000     -67.74300000
H      -45.11310000     -35.77080000     -67.64280000
