40
Properties=species:S:1:pos:R:3 #=T CELL(abcABC):=T 1.889726e+02=T 90.00000=T Traj:=T positionsangstrom=T Step:=T 0=T Bead:=T pbc="F F F"
C      -42.38930000     -34.31380000     -73.69900000
C      -42.48250000     -33.14650000     -72.82460000
C      -43.36620000     -32.13190000     -73.21540000
C      -44.00130000     -32.16740000     -74.43470000
C      -43.93600000     -33.31660000     -75.24060000
C      -43.15330000     -34.40250000     -74.90180000
H      -41.74460000     -35.10220000     -73.25790000
H      -43.56070000     -31.33440000     -72.50250000
H      -44.49530000     -33.33580000     -76.22200000
H      -43.17540000     -35.34650000     -75.36660000
C      -44.91160000     -31.01590000     -74.79280000
H      -45.79720000     -31.42730000     -75.31870000
H      -44.44250000     -30.30880000     -75.48200000
C      -41.71560000     -33.04880000     -71.55000000
H      -40.62040000     -32.86490000     -71.68960000
H      -42.10970000     -32.22620000     -70.91010000
S      -45.56380000     -30.04840000     -73.36600000
S      -41.64810000     -34.56690000     -70.51790000
C      -46.73900000     -31.22970000     -72.56390000
H      -47.56700000     -30.57080000     -72.28930000
H      -47.10150000     -31.88250000     -73.39830000
C      -43.37240000     -35.03890000     -70.07060000
H      -43.27040000     -35.84470000     -69.34770000
H      -43.79340000     -35.42460000     -71.01910000
C      -44.18150000     -33.95990000     -69.38460000
H      -43.66460000     -33.64840000     -68.39740000
H      -44.17770000     -33.06840000     -69.99950000
C      -46.18630000     -31.83450000     -71.29120000
H      -45.78340000     -30.97630000     -70.69680000
H      -45.26040000     -32.36850000     -71.47990000
C      -47.16870000     -32.71880000     -70.52540000
C      -48.52810000     -32.80540000     -70.82490000
C      -46.85410000     -33.82290000     -69.62540000
H      -49.04790000     -32.04060000     -71.43230000
C      -48.01190000     -34.51610000     -69.19640000
C      -45.63730000     -34.37590000     -68.98150000
C      -45.90240000     -35.42220000     -68.18720000
S      -49.48740000     -33.92560000     -69.88150000
S      -47.61260000     -35.80710000     -68.05180000
H      -45.13950000     -36.06470000     -67.58590000
