40
Properties=species:S:1:pos:R:3 #=T CELL(abcABC):=T 1.889726e+02=T 90.00000=T Traj:=T positionsangstrom=T Step:=T 0=T Bead:=T pbc="F F F"
C      -42.69310000     -34.36660000     -73.52760000
C      -42.44950000     -33.16650000     -72.78880000
C      -43.11230000     -32.02830000     -73.25200000
C      -44.01880000     -32.00760000     -74.34040000
C      -44.12990000     -33.15150000     -75.07170000
C      -43.47640000     -34.34610000     -74.73590000
H      -42.26350000     -35.31070000     -73.23200000
H      -42.79790000     -31.09070000     -72.75250000
H      -44.84550000     -33.25990000     -75.89430000
H      -43.47720000     -35.22480000     -75.39080000
C      -44.75530000     -30.74350000     -74.74000000
H      -45.34090000     -30.82820000     -75.68560000
H      -44.06890000     -29.92800000     -74.94160000
C      -41.45660000     -33.07340000     -71.68500000
H      -40.37950000     -33.08020000     -71.99570000
H      -41.58800000     -32.10890000     -71.15680000
S      -45.71350000     -30.01440000     -73.31100000
S      -41.60240000     -34.50590000     -70.54050000
C      -46.75340000     -31.41020000     -72.62850000
H      -47.65130000     -30.86910000     -72.36920000
H      -46.82370000     -32.18350000     -73.34930000
C      -43.42640000     -34.76240000     -70.31960000
H      -43.53380000     -35.81460000     -70.22960000
H      -43.80900000     -34.46040000     -71.28220000
C      -44.14540000     -33.98180000     -69.11990000
H      -43.70060000     -34.23820000     -68.17640000
H      -44.15530000     -32.88750000     -69.15100000
C      -46.15860000     -31.95370000     -71.28510000
H      -46.01670000     -31.12160000     -70.59060000
H      -45.16780000     -32.46030000     -71.38300000
C      -47.14300000     -32.78270000     -70.52490000
C      -48.51670000     -32.60600000     -70.55810000
C      -46.81190000     -33.92400000     -69.68550000
H      -48.98350000     -31.80900000     -71.07730000
C      -47.93340000     -34.65830000     -69.34450000
C      -45.60970000     -34.51090000     -69.05990000
C      -45.90890000     -35.60910000     -68.29040000
S      -49.43790000     -33.91350000     -69.79810000
S      -47.60410000     -36.01280000     -68.30020000
H      -45.13680000     -36.22320000     -67.71590000
