40
Properties=species:S:1:pos:R:3 #=T CELL(abcABC):=T 1.889726e+02=T 90.00000=T Traj:=T positionsangstrom=T Step:=T 0=T Bead:=T pbc="F F F"
C      -42.49940000     -34.04470000     -73.84020000
C      -42.47130000     -32.87910000     -72.98340000
C      -43.27270000     -31.81050000     -73.37410000
C      -44.28990000     -31.96130000     -74.35390000
C      -44.25690000     -33.16640000     -75.12440000
C      -43.28560000     -34.17100000     -74.94630000
H      -41.75360000     -34.81460000     -73.50810000
H      -43.27280000     -30.85910000     -72.86220000
H      -44.96870000     -33.34440000     -75.94890000
H      -43.29870000     -35.05680000     -75.64570000
C      -45.25420000     -30.84800000     -74.63610000
H      -46.09850000     -31.30180000     -75.08650000
H      -44.85080000     -30.16920000     -75.43010000
C      -41.54070000     -32.87540000     -71.77420000
H      -40.52170000     -32.75890000     -71.92970000
H      -41.86340000     -32.08130000     -71.06360000
S      -45.90810000     -29.95950000     -73.16530000
S      -41.55020000     -34.45650000     -70.73410000
C      -47.02540000     -31.15750000     -72.36390000
H      -47.82650000     -30.64180000     -71.84290000
H      -47.40860000     -31.84690000     -73.11960000
C      -43.28030000     -34.87910000     -70.25680000
H      -43.31410000     -35.80460000     -69.67070000
H      -43.72690000     -35.12270000     -71.21680000
C      -44.13440000     -33.91270000     -69.50090000
H      -43.59810000     -33.72690000     -68.58200000
H      -44.35760000     -32.95450000     -69.94840000
C      -46.33510000     -32.03510000     -71.31880000
H      -45.87000000     -31.40940000     -70.52230000
H      -45.45560000     -32.51970000     -71.76590000
C      -47.25120000     -33.03040000     -70.61490000
C      -48.61860000     -33.01880000     -70.59630000
C      -46.73010000     -34.05240000     -69.68580000
H      -49.15220000     -32.32940000     -71.26710000
C      -47.80750000     -34.79810000     -69.10440000
C      -45.45030000     -34.55170000     -69.30890000
C      -45.58300000     -35.59580000     -68.41830000
S      -49.35230000     -34.17310000     -69.56410000
S      -47.25390000     -35.96830000     -67.98800000
H      -44.73570000     -36.14680000     -67.98770000
