40
Properties=species:S:1:pos:R:3 #=T CELL(abcABC):=T 1.889726e+02=T 90.00000=T Traj:=T positionsangstrom=T Step:=T 0=T Bead:=T pbc="F F F"
C      -41.93670000     -31.03130000     -70.87330000
C      -42.98830000     -30.90000000     -71.81700000
C      -44.24320000     -30.33610000     -71.45500000
C      -44.41750000     -29.83500000     -70.13160000
C      -43.34490000     -29.95440000     -69.18260000
C      -42.08310000     -30.47580000     -69.60420000
H      -41.11100000     -31.66260000     -71.14750000
H      -45.00480000     -30.14380000     -72.23600000
H      -43.38460000     -29.59000000     -68.18220000
H      -41.31030000     -30.63710000     -68.81000000
C      -45.74050000     -29.37270000     -69.52770000
H      -46.37560000     -28.93740000     -70.27900000
H      -45.59770000     -28.57370000     -68.76150000
C      -42.83800000     -31.38780000     -73.30530000
H      -43.30570000     -30.77440000     -74.03110000
H      -41.88010000     -31.52640000     -73.64830000
S      -46.56880000     -30.79080000     -68.57090000
S      -43.63550000     -33.04560000     -73.65010000
C      -46.71970000     -31.96310000     -70.02130000
H      -47.77280000     -31.68450000     -70.39890000
H      -45.90100000     -31.74990000     -70.79630000
C      -42.89240000     -34.13490000     -72.37020000
H      -42.04230000     -33.53240000     -71.86580000
H      -42.53110000     -35.04900000     -72.75700000
C      -43.94820000     -34.58460000     -71.33370000
H      -43.35860000     -34.91330000     -70.38570000
H      -44.55080000     -33.73450000     -71.06080000
C      -46.68120000     -33.51790000     -69.70990000
H      -47.35130000     -33.72090000     -68.79110000
H      -45.65010000     -33.72960000     -69.39480000
C      -47.13300000     -34.57370000     -70.78960000
C      -48.46780000     -34.80260000     -70.91490000
C      -46.35620000     -35.50160000     -71.50640000
H      -49.31070000     -34.29350000     -70.47820000
C      -47.10550000     -36.49430000     -72.14950000
C      -44.88060000     -35.63130000     -71.76390000
C      -44.66280000     -36.71630000     -72.57860000
S      -48.76620000     -36.34630000     -71.80220000
S      -46.14670000     -37.57920000     -73.03260000
H      -43.68980000     -36.94670000     -72.98250000
