40
Properties=species:S:1:pos:R:3 #=T CELL(abcABC):=T 1.889726e+02=T 90.00000=T Traj:=T positionsangstrom=T Step:=T 0=T Bead:=T pbc="F F F"
C      -42.47300000     -34.17640000     -73.66230000
C      -42.42410000     -32.97660000     -72.92510000
C      -43.25220000     -31.93030000     -73.24680000
C      -44.27080000     -32.09670000     -74.21210000
C      -44.27790000     -33.27640000     -74.98480000
C      -43.45960000     -34.39880000     -74.59480000
H      -41.80350000     -34.92910000     -73.27120000
H      -43.42180000     -31.01590000     -72.67180000
H      -45.10540000     -33.44920000     -75.69810000
H      -43.50160000     -35.36290000     -75.08670000
C      -45.36590000     -31.04390000     -74.53290000
H      -46.27950000     -31.53980000     -74.76260000
H      -45.14820000     -30.48980000     -75.44950000
C      -41.60070000     -32.84460000     -71.67130000
H      -40.57050000     -32.61330000     -71.94040000
H      -41.92260000     -32.03640000     -71.00810000
S      -45.71150000     -29.81090000     -73.15860000
S      -41.55000000     -34.54720000     -70.75480000
C      -46.79090000     -30.81540000     -72.07380000
H      -47.30130000     -30.09460000     -71.35770000
H      -47.56250000     -31.28670000     -72.62470000
C      -43.33910000     -35.04830000     -70.52220000
H      -43.34040000     -36.09880000     -70.06550000
H      -43.87570000     -35.11600000     -71.51310000
C      -44.08880000     -33.93510000     -69.57180000
H      -43.52930000     -33.69210000     -68.65190000
H      -44.11350000     -32.97100000     -70.09280000
C      -46.16140000     -31.94890000     -71.30670000
H      -45.28100000     -31.53270000     -70.67050000
H      -45.69730000     -32.59290000     -72.01250000
C      -47.16900000     -32.86160000     -70.49730000
C      -48.55260000     -32.83620000     -70.70350000
C      -46.74330000     -34.01980000     -69.71700000
H      -49.11890000     -32.07050000     -71.19250000
C      -47.87090000     -34.71160000     -69.28870000
C      -45.43980000     -34.46590000     -69.14300000
C      -45.67180000     -35.49260000     -68.26360000
S      -49.41620000     -34.16880000     -69.88410000
S      -47.42420000     -35.99360000     -68.18460000
H      -44.91700000     -36.08660000     -67.75150000
