40
Properties=species:S:1:pos:R:3 #=T CELL(abcABC):=T 1.889726e+02=T 90.00000=T Traj:=T positionsangstrom=T Step:=T 0=T Bead:=T pbc="F F F"
C      -42.51620000     -34.25970000     -73.69500000
C      -42.45270000     -33.09300000     -72.90700000
C      -43.35590000     -32.08040000     -73.17810000
C      -44.30560000     -32.20760000     -74.17260000
C      -44.35910000     -33.34540000     -74.99160000
C      -43.36170000     -34.32870000     -74.80630000
H      -41.67670000     -35.03220000     -73.68040000
H      -43.26570000     -31.16060000     -72.61960000
H      -45.03200000     -33.29900000     -75.85150000
H      -43.46490000     -35.20880000     -75.45110000
C      -45.16090000     -30.97510000     -74.50210000
H      -46.15610000     -31.31060000     -74.93810000
H      -44.59060000     -30.35040000     -75.19060000
C      -41.58260000     -33.03660000     -71.72400000
H      -40.58170000     -32.94240000     -72.11160000
H      -41.94720000     -32.16530000     -71.14890000
S      -45.60150000     -29.89690000     -73.06260000
S      -41.55060000     -34.51750000     -70.64230000
C      -46.96420000     -30.89530000     -72.17620000
H      -47.65700000     -30.13960000     -71.71540000
H      -47.44930000     -31.51220000     -72.91520000
C      -43.27220000     -34.89010000     -70.37910000
H      -43.29820000     -35.80870000     -69.89380000
H      -43.81700000     -35.02090000     -71.33990000
C      -44.11350000     -33.88120000     -69.45070000
H      -43.62670000     -33.70720000     -68.49220000
H      -44.25120000     -32.88280000     -69.90310000
C      -46.34160000     -31.71420000     -71.07090000
H      -46.00060000     -31.10220000     -70.24170000
H      -45.46760000     -32.13420000     -71.43170000
C      -47.22790000     -32.83270000     -70.58130000
C      -48.58420000     -32.80340000     -70.72990000
C      -46.71180000     -33.98660000     -69.84450000
H      -49.05080000     -32.01290000     -71.36000000
C      -47.81500000     -34.73300000     -69.38360000
C      -45.47170000     -34.46400000     -69.25790000
C      -45.69230000     -35.56310000     -68.45810000
S      -49.42240000     -34.06380000     -69.81760000
S      -47.40660000     -35.99660000     -68.30100000
H      -44.98680000     -36.12590000     -67.92080000
