40
Properties=species:S:1:pos:R:3 #=T CELL(abcABC):=T 1.889726e+02=T 90.00000=T Traj:=T positionsangstrom=T Step:=T 0=T Bead:=T pbc="F F F"
C      -47.16100000     -30.26000000     -69.72070000
C      -46.94430000     -31.64980000     -70.01260000
C      -45.66730000     -32.16650000     -69.91520000
C      -44.52490000     -31.28650000     -69.71570000
C      -44.77580000     -29.95950000     -69.45110000
C      -46.07650000     -29.44690000     -69.33860000
H      -48.27250000     -29.91970000     -69.76420000
H      -45.56840000     -33.22560000     -70.15180000
H      -43.97400000     -29.29380000     -69.35820000
H      -46.25750000     -28.43360000     -69.07910000
C      -43.07830000     -31.80940000     -69.60800000
H      -42.99980000     -32.84350000     -69.25050000
H      -42.46610000     -31.19180000     -68.89820000
C      -48.06540000     -32.58960000     -70.45380000
H      -47.85010000     -33.68980000     -70.21540000
H      -48.98950000     -32.43380000     -69.82880000
S      -42.06660000     -31.77700000     -71.14070000
S      -48.51690000     -32.34890000     -72.27840000
C      -43.32120000     -31.86640000     -72.49110000
H      -44.29890000     -31.55430000     -72.02460000
H      -43.13150000     -31.06190000     -73.13620000
C      -46.90970000     -32.45880000     -73.21530000
H      -46.01260000     -32.28100000     -72.51330000
H      -46.78230000     -31.73080000     -73.99970000
C      -46.72010000     -33.78840000     -73.91520000
H      -47.65110000     -34.11450000     -74.46490000
H      -45.84680000     -33.63680000     -74.67850000
C      -43.26910000     -33.28170000     -73.20640000
H      -42.28220000     -33.45210000     -73.56540000
H      -43.82150000     -33.22370000     -74.13390000
C      -43.76550000     -34.43740000     -72.28790000
C      -42.95890000     -34.91910000     -71.31390000
C      -45.05810000     -35.10090000     -72.22480000
H      -41.91180000     -34.65790000     -71.21750000
C      -45.09670000     -36.08970000     -71.23850000
C      -46.31190000     -34.99400000     -72.92180000
C      -47.08040000     -36.08540000     -72.58120000
S      -43.58910000     -36.25120000     -70.32660000
S      -46.56620000     -36.96140000     -71.17790000
H      -48.02020000     -36.28730000     -73.01680000
