40
Properties=species:S:1:pos:R:3 #=T CELL(abcABC):=T 1.889726e+02=T 90.00000=T Traj:=T positionsangstrom=T Step:=T 0=T Bead:=T pbc="F F F"
C      -47.14800000     -30.39240000     -69.83920000
C      -46.86580000     -31.73720000     -70.05100000
C      -45.51310000     -32.17030000     -70.01580000
C      -44.49010000     -31.29640000     -69.63930000
C      -44.79290000     -29.94560000     -69.38180000
C      -46.10630000     -29.52760000     -69.43350000
H      -48.23140000     -30.08640000     -69.87440000
H      -45.36050000     -33.19390000     -70.10700000
H      -44.05890000     -29.33650000     -68.99180000
H      -46.33320000     -28.43580000     -69.28360000
C      -43.12030000     -31.77470000     -69.59970000
H      -43.17120000     -32.84650000     -69.39130000
H      -42.48960000     -31.34960000     -68.81030000
C      -47.87230000     -32.72430000     -70.50090000
H      -47.57260000     -33.76580000     -70.40860000
H      -48.78330000     -32.62220000     -69.94630000
S      -42.14810000     -31.42600000     -71.14980000
S      -48.50980000     -32.42050000     -72.24390000
C      -43.31550000     -31.77400000     -72.58870000
H      -44.36270000     -31.41280000     -72.39580000
H      -42.95130000     -31.18260000     -73.46760000
C      -46.90020000     -32.50610000     -73.27720000
H      -46.09000000     -32.27930000     -72.62750000
H      -47.07650000     -31.65730000     -73.97310000
C      -46.71390000     -33.88760000     -73.94580000
H      -47.59080000     -34.23410000     -74.37480000
H      -46.11970000     -33.78340000     -74.79870000
C      -43.26980000     -33.29190000     -73.07160000
H      -42.17870000     -33.47950000     -73.25590000
H      -43.70940000     -33.43710000     -74.09900000
C      -43.76470000     -34.39070000     -72.14090000
C      -42.93210000     -34.98590000     -71.21880000
C      -45.04830000     -35.07110000     -72.16240000
H      -41.94130000     -34.57450000     -70.91680000
C      -45.08030000     -36.11760000     -71.24390000
C      -46.31080000     -34.91670000     -72.88710000
C      -47.24500000     -35.82160000     -72.48370000
S      -43.58680000     -36.38440000     -70.31030000
S      -46.59930000     -37.04390000     -71.26280000
H      -48.29670000     -35.68970000     -72.75990000
