40
Properties=species:S:1:pos:R:3 #=T CELL(abcABC):=T 1.889726e+02=T 90.00000=T Traj:=T positionsangstrom=T Step:=T 0=T Bead:=T pbc="F F F"
C      -47.15040000     -30.55920000     -69.96660000
C      -46.75880000     -31.91810000     -70.10640000
C      -45.43100000     -32.25740000     -70.01250000
C      -44.48320000     -31.36500000     -69.58050000
C      -44.92920000     -30.02820000     -69.33580000
C      -46.22910000     -29.60120000     -69.57420000
H      -48.17800000     -30.19720000     -70.05710000
H      -45.08270000     -33.32850000     -70.03000000
H      -44.19970000     -29.26870000     -68.94670000
H      -46.48020000     -28.63950000     -69.34550000
C      -43.01430000     -31.59300000     -69.60230000
H      -42.76720000     -32.64980000     -69.39360000
H      -42.50910000     -30.95480000     -68.89870000
C      -47.79660000     -32.95110000     -70.52960000
H      -47.33030000     -33.92270000     -70.50420000
H      -48.63300000     -33.06020000     -69.82850000
S      -42.32130000     -31.11680000     -71.22620000
S      -48.50180000     -32.59690000     -72.24310000
C      -43.44910000     -32.04110000     -72.41440000
H      -44.42990000     -32.17660000     -71.84210000
H      -43.67120000     -31.34270000     -73.15990000
C      -47.06260000     -32.34650000     -73.34280000
H      -46.23970000     -31.72680000     -72.85310000
H      -47.34290000     -31.79340000     -74.20530000
C      -46.47010000     -33.60720000     -73.93870000
H      -47.19330000     -33.93190000     -74.63200000
H      -45.61780000     -33.33900000     -74.53620000
C      -43.05620000     -33.44530000     -72.89990000
H      -41.96770000     -33.63250000     -72.90170000
H      -43.31430000     -33.61060000     -73.97140000
C      -43.62250000     -34.47970000     -72.03270000
C      -42.83420000     -35.14450000     -71.13140000
C      -44.95310000     -34.97390000     -72.04690000
H      -41.77560000     -35.19110000     -71.13150000
C      -45.11230000     -36.08050000     -71.20630000
C      -46.15650000     -34.76600000     -72.91810000
C      -47.14580000     -35.67510000     -72.59030000
S      -43.71040000     -36.46650000     -70.32700000
S      -46.67150000     -36.86850000     -71.26810000
H      -48.04280000     -35.82550000     -73.13370000
