40
Properties=species:S:1:pos:R:3 #=T CELL(abcABC):=T 1.889726e+02=T 90.00000=T Traj:=T positionsangstrom=T Step:=T 0=T Bead:=T pbc="F F F"
C      -46.05950000     -36.08130000     -68.83520000
C      -44.81100000     -36.09890000     -69.45920000
C      -44.72580000     -36.44590000     -70.81770000
C      -45.88350000     -36.56210000     -71.60720000
C      -47.16220000     -36.46310000     -70.89690000
C      -47.24390000     -36.17720000     -69.55500000
H      -46.12460000     -35.76240000     -67.76480000
H      -43.78460000     -36.46070000     -71.33870000
H      -48.09690000     -36.74010000     -71.44790000
H      -48.20240000     -36.15950000     -69.00120000
C      -45.86470000     -36.92590000     -73.08470000
H      -46.91390000     -36.93930000     -73.42410000
H      -45.55310000     -37.91020000     -73.07800000
C      -43.58370000     -35.81240000     -68.70850000
H      -43.30200000     -36.61120000     -68.00990000
H      -42.71810000     -35.79120000     -69.41380000
S      -44.93790000     -36.00580000     -74.37910000
S      -43.72050000     -34.31420000     -67.63620000
C      -45.68140000     -34.35860000     -74.28660000
H      -45.58150000     -33.87870000     -75.27530000
H      -46.77300000     -34.38600000     -74.07060000
C      -44.69990000     -33.12980000     -68.65400000
H      -44.70310000     -32.33440000     -67.92050000
H      -45.67820000     -33.50390000     -68.79920000
C      -44.11340000     -32.76570000     -69.98790000
H      -42.96110000     -32.57790000     -69.98390000
H      -44.36080000     -33.61920000     -70.64560000
C      -45.05230000     -33.55730000     -73.14420000
H      -43.87760000     -33.62290000     -73.20590000
H      -45.28240000     -34.05930000     -72.22120000
C      -45.44490000     -32.10980000     -73.10150000
C      -46.02490000     -31.40330000     -74.07680000
C      -45.21300000     -31.26510000     -71.90320000
H      -46.38870000     -31.78890000     -75.06900000
C      -45.86120000     -30.02610000     -72.09390000
C      -44.75020000     -31.46850000     -70.55030000
C      -44.84060000     -30.31770000     -69.76250000
S      -46.34720000     -29.70460000     -73.71700000
S      -45.69020000     -29.04730000     -70.65920000
H      -44.45730000     -30.11240000     -68.70560000
