40
Properties=species:S:1:pos:R:3 #=T CELL(abcABC):=T 1.889726e+02=T 90.00000=T Traj:=T positionsangstrom=T Step:=T 0=T Bead:=T pbc="F F F"
C      -46.34450000     -29.91680000     -69.52090000
C      -46.38010000     -31.20410000     -69.99250000
C      -45.18960000     -31.90830000     -70.10500000
C      -43.91910000     -31.37950000     -69.93970000
C      -43.89060000     -30.00710000     -69.55290000
C      -45.06060000     -29.33150000     -69.24850000
H      -47.29820000     -29.47560000     -69.44420000
H      -45.28690000     -32.92270000     -70.41130000
H      -42.90040000     -29.51300000     -69.35830000
H      -44.89650000     -28.37250000     -68.76280000
C      -42.72620000     -32.29450000     -70.09430000
H      -42.99030000     -33.31200000     -69.83870000
H      -41.96300000     -31.80120000     -69.46460000
C      -47.65450000     -31.84310000     -70.39510000
H      -47.66120000     -32.88830000     -70.02650000
H      -48.32230000     -31.32070000     -69.74540000
S      -41.97040000     -32.43660000     -71.78090000
S      -48.39860000     -31.65500000     -72.07800000
C      -43.39820000     -32.30190000     -73.01800000
H      -44.19790000     -31.79950000     -72.51130000
H      -43.15020000     -31.71210000     -73.84250000
C      -47.15030000     -32.46060000     -73.13660000
H      -46.18480000     -32.23830000     -72.72080000
H      -47.15580000     -31.94650000     -74.10810000
C      -47.41180000     -33.98710000     -73.43960000
H      -48.51800000     -34.02500000     -73.47550000
H      -46.93250000     -34.27530000     -74.33280000
C      -43.79290000     -33.69460000     -73.58490000
H      -42.92530000     -34.20280000     -74.01450000
H      -44.63720000     -33.43360000     -74.26120000
C      -44.19660000     -34.69200000     -72.49320000
C      -43.18380000     -35.42520000     -71.88440000
C      -45.51970000     -35.03100000     -72.00380000
H      -42.11260000     -35.27350000     -72.06740000
C      -45.39850000     -36.10790000     -71.05200000
C      -46.94210000     -34.81050000     -72.29730000
C      -47.76020000     -35.57500000     -71.53110000
S      -43.75640000     -36.57600000     -70.65800000
S      -46.94230000     -36.72630000     -70.50570000
H      -48.86320000     -35.37290000     -71.60120000
