40
Properties=species:S:1:pos:R:3 #=T CELL(abcABC):=T 1.889726e+02=T 90.00000=T Traj:=T positionsangstrom=T Step:=T 0=T Bead:=T pbc="F F F"
C      -43.19770000     -34.25220000     -73.80500000
C      -42.68130000     -33.08000000     -73.26590000
C      -43.38460000     -31.88700000     -73.55830000
C      -44.57700000     -31.85390000     -74.32740000
C      -45.06390000     -33.08330000     -74.73450000
C      -44.34690000     -34.22100000     -74.57460000
H      -42.66300000     -35.12830000     -73.54060000
H      -42.92630000     -30.94960000     -73.16040000
H      -45.93540000     -33.11430000     -75.33350000
H      -44.70670000     -35.18770000     -75.02490000
C      -45.36530000     -30.58960000     -74.60680000
H      -45.99940000     -30.87900000     -75.34920000
H      -44.86140000     -29.58460000     -74.87070000
C      -41.36450000     -33.14640000     -72.54520000
H      -40.49080000     -33.40490000     -73.17880000
H      -41.17490000     -32.16280000     -72.09490000
S      -46.49090000     -29.98630000     -73.30900000
S      -41.36010000     -34.24210000     -70.96210000
C      -47.43950000     -31.54180000     -72.67600000
H      -48.50170000     -31.17050000     -72.36550000
H      -47.50590000     -32.31730000     -73.47310000
C      -43.03820000     -34.83430000     -70.60460000
H      -42.87930000     -35.70240000     -69.98690000
H      -43.52880000     -35.19850000     -71.54380000
C      -43.82050000     -33.71860000     -69.92990000
H      -43.26020000     -33.07120000     -69.17900000
H      -44.11210000     -33.04430000     -70.72210000
C      -46.61650000     -32.22680000     -71.54060000
H      -46.29450000     -31.32810000     -70.94800000
H      -45.69950000     -32.54030000     -72.02140000
C      -47.22440000     -33.18300000     -70.57750000
C      -48.58000000     -33.28010000     -70.38620000
C      -46.46770000     -33.98080000     -69.60480000
H      -49.39950000     -32.92320000     -71.12990000
C      -47.39430000     -34.75480000     -68.77510000
C      -45.09900000     -34.23800000     -69.23550000
C      -45.01100000     -35.16160000     -68.19960000
S      -49.00540000     -34.53510000     -69.23510000
S      -46.55410000     -35.69580000     -67.53040000
H      -44.04800000     -35.37820000     -67.78770000
