40
Properties=species:S:1:pos:R:3 #=T CELL(abcABC):=T 1.889726e+02=T 90.00000=T Traj:=T positionsangstrom=T Step:=T 0=T Bead:=T pbc="F F F"
C      -46.70570000     -29.91000000     -70.02800000
C      -46.93100000     -31.31580000     -70.21880000
C      -45.77420000     -32.08490000     -70.33570000
C      -44.52980000     -31.54940000     -70.10400000
C      -44.28900000     -30.17560000     -69.94280000
C      -45.46910000     -29.36900000     -69.90230000
H      -47.61670000     -29.28400000     -69.71870000
H      -45.75230000     -33.18360000     -70.42880000
H      -43.27910000     -29.80280000     -69.64580000
H      -45.43830000     -28.24210000     -69.78950000
C      -43.27510000     -32.43680000     -69.86770000
H      -43.57390000     -33.45780000     -69.69280000
H      -42.69840000     -31.95160000     -69.03980000
C      -48.33420000     -31.86350000     -70.39950000
H      -48.41510000     -32.72850000     -69.84920000
H      -49.04440000     -31.23220000     -69.95830000
S      -42.01530000     -32.26370000     -71.27570000
S      -48.84160000     -32.29650000     -72.12620000
C      -43.04880000     -32.38570000     -72.80100000
H      -44.09550000     -32.02070000     -72.62860000
H      -42.64910000     -31.59750000     -73.52680000
C      -47.34580000     -32.16540000     -73.19070000
H      -46.62630000     -31.72480000     -72.54160000
H      -47.52500000     -31.50620000     -74.11170000
C      -46.70720000     -33.51720000     -73.62970000
H      -47.38500000     -34.02890000     -74.35690000
H      -45.80000000     -33.32450000     -74.19510000
C      -42.95490000     -33.87760000     -73.31480000
H      -41.87990000     -34.03110000     -73.45760000
H      -43.22560000     -33.87050000     -74.36400000
C      -43.59760000     -34.85080000     -72.35540000
C      -42.78800000     -35.68250000     -71.62270000
C      -45.00480000     -35.05430000     -71.98540000
H      -41.70570000     -35.77240000     -71.69180000
C      -45.14570000     -36.00740000     -70.96070000
C      -46.31850000     -34.53960000     -72.48470000
C      -47.37830000     -35.08490000     -71.71940000
S      -43.57580000     -36.70040000     -70.53320000
S      -46.78160000     -36.19920000     -70.46950000
H      -48.45120000     -35.22470000     -71.89840000
