40
Properties=species:S:1:pos:R:3 #=T CELL(abcABC):=T 1.889726e+02=T 90.00000=T Traj:=T positionsangstrom=T Step:=T 0=T Bead:=T pbc="F F F"
C      -46.73960000     -29.88350000     -70.06340000
C      -46.88280000     -31.29350000     -70.12420000
C      -45.75100000     -32.08250000     -70.05740000
C      -44.48110000     -31.55410000     -69.99850000
C      -44.27550000     -30.13620000     -69.92380000
C      -45.39330000     -29.27910000     -70.03820000
H      -47.51860000     -29.14220000     -70.14710000
H      -45.79790000     -33.15080000     -70.08590000
H      -43.22200000     -29.82530000     -69.94320000
H      -45.34570000     -28.09350000     -70.02590000
C      -43.30830000     -32.50460000     -70.02480000
H      -43.71030000     -33.49760000     -70.14640000
H      -42.78960000     -32.55970000     -69.05200000
C      -48.21720000     -31.90380000     -70.29110000
H      -48.19790000     -32.99530000     -69.84910000
H      -49.05570000     -31.29440000     -69.85690000
S      -42.02510000     -32.20680000     -71.29110000
S      -48.68630000     -31.98870000     -72.12280000
C      -43.01660000     -32.42180000     -72.79780000
H      -43.96490000     -31.98250000     -72.70780000
H      -42.44140000     -31.88020000     -73.52270000
C      -47.07770000     -32.19380000     -73.11080000
H      -46.39960000     -31.48410000     -72.67850000
H      -47.50900000     -31.71690000     -73.99450000
C      -46.58380000     -33.57820000     -73.47450000
H      -47.34010000     -33.99520000     -74.12840000
H      -45.68270000     -33.51780000     -74.11000000
C      -43.20970000     -33.83730000     -73.40660000
H      -42.25020000     -34.23400000     -73.83750000
H      -43.87960000     -33.78790000     -74.25910000
C      -43.76570000     -34.92270000     -72.50720000
C      -42.86220000     -35.74010000     -71.82430000
C      -45.11070000     -35.07760000     -72.00870000
H      -41.82130000     -35.72650000     -72.05420000
C      -45.17460000     -36.05300000     -70.97770000
C      -46.38670000     -34.49870000     -72.37620000
C      -47.38270000     -35.05080000     -71.60400000
S      -43.62970000     -36.78140000     -70.59870000
S      -46.85740000     -36.40230000     -70.45110000
H      -48.48270000     -34.98320000     -71.64520000
