40
Properties=species:S:1:pos:R:3 #=T CELL(abcABC):=T 1.889726e+02=T 90.00000=T Traj:=T positionsangstrom=T Step:=T 0=T Bead:=T pbc="F F F"
C      -46.08590000     -29.87200000     -70.07020000
C      -45.95190000     -31.27470000     -70.02320000
C      -44.69840000     -31.93880000     -70.04590000
C      -43.49990000     -31.18020000     -70.09690000
C      -43.65020000     -29.76400000     -70.15080000
C      -44.91030000     -29.15400000     -70.17950000
H      -47.10100000     -29.34090000     -70.10820000
H      -44.66370000     -33.03340000     -70.07600000
H      -42.70300000     -29.18410000     -70.26990000
H      -44.94170000     -28.09100000     -70.39770000
C      -42.12600000     -31.87160000     -70.18890000
H      -42.02410000     -32.48870000     -69.25860000
H      -41.25290000     -31.10640000     -70.21130000
C      -47.25560000     -32.09780000     -70.08840000
H      -47.08280000     -33.16670000     -69.92580000
H      -47.84100000     -31.89290000     -69.11110000
S      -41.75320000     -33.09460000     -71.55160000
S      -48.37770000     -31.62780000     -71.39180000
C      -43.07850000     -32.67480000     -72.85260000
H      -43.82580000     -32.09330000     -72.39550000
H      -42.67800000     -32.17420000     -73.66540000
C      -47.32800000     -31.88710000     -72.95860000
H      -46.32970000     -31.61290000     -72.60220000
H      -47.64280000     -31.14350000     -73.70540000
C      -47.25380000     -33.37800000     -73.43770000
H      -48.18420000     -33.69850000     -73.94550000
H      -46.62140000     -33.38490000     -74.34480000
C      -43.60310000     -33.99400000     -73.39600000
H      -42.77840000     -34.57500000     -73.83850000
H      -44.32790000     -33.79660000     -74.21700000
C      -44.25730000     -34.94320000     -72.41130000
C      -43.45560000     -35.82260000     -71.73330000
C      -45.64400000     -35.04570000     -72.07360000
H      -42.41710000     -35.97820000     -71.84790000
C      -45.82470000     -36.11280000     -71.21360000
C      -46.89850000     -34.43590000     -72.43890000
C      -47.93410000     -34.97330000     -71.71710000
S      -44.43200000     -36.87110000     -70.60990000
S      -47.57230000     -36.45740000     -70.74540000
H      -48.97270000     -34.69480000     -71.80630000
