40
Properties=species:S:1:pos:R:3 #=T CELL(abcABC):=T 1.889726e+02=T 90.00000=T Traj:=T positionsangstrom=T Step:=T 0=T Bead:=T pbc="F F F"
C      -45.78380000     -29.51320000     -70.00630000
C      -45.77870000     -30.89900000     -69.97070000
C      -44.60250000     -31.61820000     -69.96940000
C      -43.35300000     -30.95540000     -70.12650000
C      -43.32950000     -29.55910000     -70.33980000
C      -44.54420000     -28.88860000     -70.27290000
H      -46.62550000     -28.88370000     -69.91070000
H      -44.62670000     -32.74180000     -70.02300000
H      -42.38370000     -29.09760000     -70.53450000
H      -44.48520000     -27.82230000     -70.54150000
C      -42.14240000     -31.72620000     -70.03290000
H      -41.99940000     -32.03170000     -69.00100000
H      -41.25510000     -31.22590000     -70.30330000
C      -47.09600000     -31.63920000     -69.83990000
H      -46.93830000     -32.61380000     -69.43860000
H      -47.64190000     -31.09480000     -69.08420000
S      -42.24070000     -33.37470000     -70.89720000
S      -48.13020000     -31.55320000     -71.43860000
C      -43.03950000     -32.89230000     -72.50430000
H      -43.85690000     -32.30220000     -72.15330000
H      -42.32680000     -32.30050000     -73.16010000
C      -46.83170000     -32.01390000     -72.76350000
H      -45.86320000     -32.00130000     -72.26480000
H      -46.83320000     -31.20340000     -73.50460000
C      -47.00170000     -33.31610000     -73.58640000
H      -47.90950000     -33.21390000     -74.16120000
H      -46.27140000     -33.37210000     -74.42500000
C      -43.60170000     -34.08030000     -73.30680000
H      -42.82950000     -34.50510000     -73.95410000
H      -44.22140000     -33.61790000     -74.02660000
C      -44.33990000     -35.12710000     -72.51160000
C      -43.66220000     -36.13600000     -71.89930000
C      -45.77860000     -35.24010000     -72.26280000
H      -42.59200000     -36.34780000     -72.16840000
C      -46.07810000     -36.29410000     -71.36810000
C      -46.97750000     -34.55690000     -72.70420000
C      -48.11870000     -35.03880000     -72.04390000
S      -44.67710000     -37.12370000     -70.86180000
S      -47.72510000     -36.42490000     -70.96740000
H      -49.07650000     -34.57480000     -72.17150000
