40
Properties=species:S:1:pos:R:3 #=T CELL(abcABC):=T 1.889726e+02=T 90.00000=T Traj:=T positionsangstrom=T Step:=T 0=T Bead:=T pbc="F F F"
C      -45.85740000     -29.74970000     -70.04750000
C      -45.85360000     -31.13190000     -70.08650000
C      -44.66200000     -31.87030000     -69.97740000
C      -43.45700000     -31.12580000     -70.06520000
C      -43.49980000     -29.74810000     -70.28080000
C      -44.69900000     -29.04590000     -70.09050000
H      -46.82110000     -29.24390000     -69.88480000
H      -44.77790000     -32.91900000     -69.91230000
H      -42.58750000     -29.20130000     -70.37730000
H      -44.51520000     -27.99140000     -69.94990000
C      -42.15200000     -31.77590000     -69.92730000
H      -42.04560000     -32.27770000     -69.03120000
H      -41.41280000     -30.99730000     -70.08700000
C      -47.07220000     -31.94190000     -69.98630000
H      -46.84590000     -32.98070000     -70.10070000
H      -47.66080000     -31.68110000     -69.17230000
S      -41.92810000     -33.10410000     -71.37160000
S      -48.20130000     -31.62450000     -71.48850000
C      -43.15020000     -32.68780000     -72.74390000
H      -43.95260000     -32.06130000     -72.25760000
H      -42.63140000     -31.97670000     -73.47160000
C      -47.10030000     -31.94000000     -72.82050000
H      -46.08000000     -31.84990000     -72.45560000
H      -47.24240000     -31.13910000     -73.56300000
C      -47.21850000     -33.35200000     -73.50230000
H      -48.29050000     -33.42430000     -73.81840000
H      -46.58510000     -33.40380000     -74.39220000
C      -43.72080000     -33.97530000     -73.41570000
H      -42.89830000     -34.43440000     -73.90330000
H      -44.51750000     -33.59470000     -74.13410000
C      -44.34870000     -35.02350000     -72.47160000
C      -43.61510000     -35.97260000     -71.81600000
C      -45.76220000     -35.18260000     -72.14460000
H      -42.51720000     -35.91920000     -71.72350000
C      -45.95210000     -36.26120000     -71.21600000
C      -46.98580000     -34.54680000     -72.57250000
C      -48.06040000     -35.10630000     -71.92750000
S      -44.47890000     -36.96670000     -70.74980000
S      -47.66220000     -36.39960000     -70.72790000
H      -49.14110000     -34.75500000     -72.06170000
