40
Properties=species:S:1:pos:R:3 #=T CELL(abcABC):=T 1.889726e+02=T 90.00000=T Traj:=T positionsangstrom=T Step:=T 0=T Bead:=T pbc="F F F"
C      -45.73650000     -29.26780000     -70.08950000
C      -45.88110000     -30.63340000     -69.83220000
C      -44.74520000     -31.46540000     -69.91130000
C      -43.46300000     -30.88770000     -70.06370000
C      -43.33520000     -29.46550000     -70.27540000
C      -44.51610000     -28.70950000     -70.45370000
H      -46.59230000     -28.53810000     -70.04550000
H      -44.69470000     -32.57370000     -69.74320000
H      -42.30700000     -29.00940000     -70.32020000
H      -44.45960000     -27.70040000     -70.72350000
C      -42.10690000     -31.71100000     -70.18660000
H      -41.53470000     -31.64870000     -69.25090000
H      -41.57280000     -31.13830000     -71.06020000
C      -47.20180000     -31.37540000     -69.80140000
H      -47.11330000     -32.46250000     -69.48210000
H      -48.03240000     -30.95340000     -69.13590000
S      -42.32340000     -33.41830000     -70.79810000
S      -48.14530000     -31.51480000     -71.40580000
C      -42.88350000     -33.02480000     -72.47990000
H      -43.64750000     -32.26420000     -72.40730000
H      -42.02620000     -32.59280000     -73.08800000
C      -46.89590000     -31.85630000     -72.63890000
H      -45.94840000     -31.87860000     -72.18410000
H      -46.87610000     -30.99620000     -73.35080000
C      -47.12990000     -33.20690000     -73.39280000
H      -48.20540000     -33.16960000     -73.74470000
H      -46.51370000     -33.28150000     -74.26370000
C      -43.42160000     -34.23100000     -73.23410000
H      -42.56830000     -34.82580000     -73.56190000
H      -44.11700000     -33.95570000     -74.09620000
C      -44.23370000     -35.17480000     -72.42550000
C      -43.60760000     -36.22830000     -71.81700000
C      -45.65850000     -35.18300000     -72.19710000
H      -42.55490000     -36.34240000     -71.65160000
C      -46.04190000     -36.38760000     -71.58230000
C      -46.89930000     -34.48010000     -72.56140000
C      -48.01160000     -35.15980000     -72.07040000
S      -44.69660000     -37.33620000     -70.98460000
S      -47.71580000     -36.62260000     -71.17500000
H      -48.99300000     -34.86540000     -72.30950000
