40
Properties=species:S:1:pos:R:3 #=T CELL(abcABC):=T 1.889726e+02=T 90.00000=T Traj:=T positionsangstrom=T Step:=T 0=T Bead:=T pbc="F F F"
C      -46.09680000     -30.13300000     -69.81020000
C      -46.13890000     -31.53380000     -69.94930000
C      -44.92240000     -32.22550000     -69.96580000
C      -43.68550000     -31.53850000     -70.01670000
C      -43.71620000     -30.13580000     -69.91920000
C      -44.89800000     -29.42060000     -69.69010000
H      -46.94700000     -29.51960000     -69.68990000
H      -44.86770000     -33.28230000     -70.00600000
H      -42.73460000     -29.60840000     -69.93340000
H      -44.93830000     -28.40650000     -69.42610000
C      -42.40770000     -32.26710000     -70.21560000
H      -42.56450000     -33.25830000     -69.84910000
H      -41.55840000     -31.90390000     -69.59480000
C      -47.50920000     -32.21650000     -69.95370000
H      -47.41230000     -33.28830000     -69.80950000
H      -48.17410000     -31.78900000     -69.23740000
S      -41.78940000     -32.43120000     -71.93360000
S      -48.51440000     -32.03920000     -71.61640000
C      -43.24000000     -32.61560000     -73.10990000
H      -44.10200000     -32.07580000     -72.55590000
H      -43.00160000     -31.98000000     -74.02160000
C      -47.13290000     -32.12020000     -72.83250000
H      -46.23930000     -31.93730000     -72.28730000
H      -47.28480000     -31.37540000     -73.61420000
C      -46.96700000     -33.43770000     -73.66830000
H      -47.88150000     -33.63790000     -74.20630000
H      -46.10390000     -33.37590000     -74.25560000
C      -43.49600000     -34.01630000     -73.51820000
H      -42.65250000     -34.53990000     -73.86690000
H      -44.18690000     -34.02180000     -74.40880000
C      -44.16150000     -34.86250000     -72.43610000
C      -43.32430000     -35.56170000     -71.56470000
C      -45.54370000     -35.02980000     -72.10240000
H      -42.22320000     -35.29200000     -71.60730000
C      -45.75990000     -35.90260000     -71.04260000
C      -46.77810000     -34.54850000     -72.71000000
C      -47.86650000     -35.16610000     -72.07590000
S      -44.27120000     -36.48420000     -70.32990000
S      -47.47610000     -36.13750000     -70.63840000
H      -48.94240000     -35.12570000     -72.27390000
