40
Properties=species:S:1:pos:R:3 #=T CELL(abcABC):=T 1.889726e+02=T 90.00000=T Traj:=T positionsangstrom=T Step:=T 0=T Bead:=T pbc="F F F"
C      -45.76850000     -29.12170000     -70.13110000
C      -45.95810000     -30.50790000     -69.89140000
C      -44.81130000     -31.34970000     -69.93800000
C      -43.51210000     -30.78120000     -70.08140000
C      -43.30220000     -29.40460000     -70.28970000
C      -44.51970000     -28.64680000     -70.42960000
H      -46.65280000     -28.42190000     -70.19580000
H      -44.79470000     -32.42740000     -69.82790000
H      -42.31340000     -29.04070000     -70.72050000
H      -44.44210000     -27.55420000     -70.63490000
C      -42.31370000     -31.69840000     -69.89020000
H      -42.15820000     -32.07560000     -68.87010000
H      -41.39810000     -31.17120000     -70.14550000
C      -47.30340000     -31.10650000     -69.79380000
H      -47.11760000     -31.92270000     -69.14290000
H      -48.00140000     -30.44660000     -69.36440000
S      -42.35350000     -33.33910000     -70.79720000
S      -48.07800000     -31.59310000     -71.39830000
C      -43.16390000     -32.92110000     -72.43280000
H      -43.97540000     -32.20700000     -72.19470000
H      -42.45260000     -32.39350000     -72.97790000
C      -46.61830000     -31.91100000     -72.42620000
H      -45.79770000     -32.01920000     -71.68190000
H      -46.39730000     -30.99400000     -73.09750000
C      -46.74570000     -33.15590000     -73.29220000
H      -47.67980000     -33.13080000     -73.85920000
H      -45.87320000     -33.11360000     -73.87260000
C      -43.53890000     -34.22360000     -73.22780000
H      -42.60910000     -34.60370000     -73.58530000
H      -44.14060000     -33.96850000     -74.11360000
C      -44.25200000     -35.29530000     -72.40600000
C      -43.58290000     -36.42610000     -72.01960000
C      -45.67030000     -35.35520000     -72.11270000
H      -42.57300000     -36.61540000     -72.06940000
C      -46.04210000     -36.55550000     -71.49790000
C      -46.79140000     -34.46660000     -72.44040000
C      -47.98910000     -35.03280000     -72.11010000
S      -44.61040000     -37.54890000     -71.16190000
S      -47.81040000     -36.63860000     -71.28160000
H      -48.93470000     -34.66810000     -72.47210000
