40
Properties=species:S:1:pos:R:3 #=T CELL(abcABC):=T 1.889726e+02=T 90.00000=T Traj:=T positionsangstrom=T Step:=T 0=T Bead:=T pbc="F F F"
C      -45.83880000     -29.02810000     -70.33850000
C      -46.03570000     -30.40300000     -69.92530000
C      -44.90070000     -31.22820000     -69.76750000
C      -43.65970000     -30.71440000     -70.16660000
C      -43.39180000     -29.34130000     -70.39530000
C      -44.51810000     -28.49110000     -70.37950000
H      -46.69320000     -28.40230000     -70.22240000
H      -44.94010000     -32.23840000     -69.38860000
H      -42.45690000     -28.90100000     -70.58550000
H      -44.36470000     -27.43050000     -70.55940000
C      -42.41260000     -31.59950000     -70.07260000
H      -42.18310000     -31.54750000     -69.00270000
H      -41.63260000     -31.05200000     -70.63990000
C      -47.41200000     -30.98790000     -69.72670000
H      -47.46810000     -31.70140000     -68.90890000
H      -48.18620000     -30.32510000     -69.42440000
S      -42.59930000     -33.32280000     -70.60570000
S      -48.03980000     -31.81570000     -71.27950000
C      -43.06810000     -33.03900000     -72.35560000
H      -43.98370000     -32.54450000     -72.37290000
H      -42.34880000     -32.41680000     -72.84780000
C      -46.59310000     -31.97310000     -72.44930000
H      -45.59040000     -31.92180000     -71.88720000
H      -46.63840000     -31.03060000     -73.10290000
C      -46.74590000     -33.20130000     -73.33850000
H      -47.59730000     -33.06260000     -73.99450000
H      -45.87360000     -33.22900000     -74.05580000
C      -43.32920000     -34.25170000     -73.21900000
H      -42.42330000     -34.66130000     -73.69280000
H      -43.94320000     -33.87660000     -74.05410000
C      -44.11240000     -35.37930000     -72.57290000
C      -43.49990000     -36.42840000     -71.96360000
C      -45.55590000     -35.32220000     -72.31550000
H      -42.41700000     -36.45740000     -71.81060000
C      -45.93850000     -36.48070000     -71.61700000
C      -46.78230000     -34.52360000     -72.58620000
C      -47.88630000     -35.15840000     -72.11790000
S      -44.64000000     -37.48040000     -71.14520000
S      -47.63670000     -36.69070000     -71.27880000
H      -48.95900000     -34.80720000     -72.08710000
