40
Properties=species:S:1:pos:R:3 #=T CELL(abcABC):=T 1.889726e+02=T 90.00000=T Traj:=T positionsangstrom=T Step:=T 0=T Bead:=T pbc="F F F"
C      -46.80410000     -36.47980000     -71.95450000
C      -47.25320000     -35.57420000     -72.92890000
C      -48.08680000     -34.50280000     -72.50510000
C      -48.59180000     -34.54470000     -71.19710000
C      -48.04180000     -35.39450000     -70.22760000
C      -47.10620000     -36.34610000     -70.61830000
H      -46.09650000     -37.20760000     -72.39710000
H      -48.45290000     -33.76870000     -73.28110000
H      -48.43640000     -35.37130000     -69.18410000
H      -46.53590000     -36.98810000     -69.90530000
C      -49.47920000     -33.43610000     -70.73160000
H      -49.66730000     -33.69340000     -69.70460000
H      -50.41100000     -33.37050000     -71.31410000
C      -46.77520000     -35.64470000     -74.29820000
H      -46.08060000     -36.49620000     -74.49680000
H      -47.49670000     -35.70900000     -75.11840000
S      -48.71230000     -31.78850000     -70.92770000
S      -45.78900000     -34.06020000     -74.65220000
C      -47.16190000     -31.84450000     -69.88760000
H      -46.94500000     -30.85130000     -69.45540000
H      -47.36030000     -32.51190000     -69.07990000
C      -44.48290000     -34.16030000     -73.37920000
H      -43.83960000     -35.05920000     -73.52250000
H      -45.00280000     -34.30260000     -72.43020000
C      -43.70910000     -32.89330000     -73.44770000
H      -42.95750000     -32.93030000     -74.22530000
H      -44.35690000     -32.06460000     -73.69990000
C      -45.94690000     -32.43180000     -70.70260000
H      -45.98160000     -31.92360000     -71.64890000
H      -46.15740000     -33.43910000     -71.04870000
C      -44.59880000     -32.30190000     -70.04670000
C      -44.49720000     -32.22500000     -68.71370000
C      -43.30790000     -32.47280000     -70.68600000
H      -45.32670000     -32.23590000     -68.05690000
C      -42.28640000     -32.48890000     -69.76650000
C      -42.90030000     -32.54500000     -72.10190000
C      -41.55210000     -32.69890000     -72.07040000
S      -42.81620000     -32.19380000     -68.14010000
S      -40.75040000     -32.51040000     -70.51450000
H      -40.92870000     -32.76840000     -72.96890000
