40
Properties=species:S:1:pos:R:3 #=T CELL(abcABC):=T 1.889726e+02=T 90.00000=T Traj:=T positionsangstrom=T Step:=T 0=T Bead:=T pbc="F F F"
C      -43.43850000     -32.47850000     -75.59760000
C      -43.53730000     -32.21520000     -74.20270000
C      -44.73840000     -31.79930000     -73.61200000
C      -45.91930000     -31.75000000     -74.37450000
C      -45.80020000     -32.11340000     -75.73850000
C      -44.63730000     -32.49960000     -76.35710000
H      -42.51990000     -32.53300000     -76.03860000
H      -44.75670000     -31.53350000     -72.54500000
H      -46.76520000     -32.16590000     -76.26390000
H      -44.76940000     -32.74460000     -77.42950000
C      -47.22760000     -31.41320000     -73.70340000
H      -47.55760000     -32.37030000     -73.14920000
H      -47.91480000     -31.31660000     -74.53080000
C      -42.38870000     -32.52260000     -73.32420000
H      -41.42920000     -32.40170000     -73.88490000
H      -42.31870000     -31.82360000     -72.47100000
S      -47.32580000     -30.28130000     -72.29280000
S      -42.33540000     -34.31400000     -73.01440000
C      -47.52870000     -31.35830000     -70.82100000
H      -47.68660000     -30.67220000     -69.95290000
H      -48.52830000     -31.87740000     -70.91980000
C      -43.83420000     -34.54610000     -71.98700000
H      -44.08170000     -35.64470000     -71.96490000
H      -44.69570000     -34.06250000     -72.43460000
C      -43.47280000     -34.07210000     -70.52930000
H      -42.40010000     -34.35080000     -70.53810000
H      -43.51740000     -32.93860000     -70.55630000
C      -46.36290000     -32.32600000     -70.57820000
H      -45.37030000     -31.72240000     -70.49990000
H      -46.26390000     -32.90240000     -71.45320000
C      -46.55740000     -33.28950000     -69.40380000
C      -47.69170000     -33.29040000     -68.57180000
C      -45.64360000     -34.35610000     -69.09830000
H      -48.59630000     -32.70290000     -68.73730000
C      -46.09980000     -35.20610000     -68.13220000
C      -44.28840000     -34.72190000     -69.43890000
C      -43.78140000     -35.82150000     -68.79090000
S      -47.64990000     -34.68170000     -67.53100000
S      -44.99630000     -36.49790000     -67.68840000
H      -42.78830000     -36.23970000     -68.91520000
