40
Properties=species:S:1:pos:R:3 #=T CELL(abcABC):=T 1.889726e+02=T 90.00000=T Traj:=T positionsangstrom=T Step:=T 0=T Bead:=T pbc="F F F"
C      -43.69910000     -32.35410000     -75.75640000
C      -43.68400000     -32.22380000     -74.34320000
C      -44.81270000     -31.67090000     -73.67960000
C      -46.02000000     -31.50910000     -74.34700000
C      -46.06790000     -31.75540000     -75.74440000
C      -44.85690000     -32.05830000     -76.42790000
H      -42.81920000     -32.81700000     -76.28540000
H      -44.70990000     -31.47300000     -72.58730000
H      -47.07790000     -31.73820000     -76.15120000
H      -44.86130000     -32.10020000     -77.53250000
C      -47.24600000     -31.36520000     -73.52750000
H      -47.54240000     -32.38600000     -73.23520000
H      -48.07810000     -30.90330000     -74.17540000
C      -42.46700000     -32.36360000     -73.49000000
H      -41.57160000     -31.96020000     -73.96510000
H      -42.63270000     -31.83290000     -72.53320000
S      -47.20320000     -30.21640000     -72.03850000
S      -42.13110000     -34.14300000     -73.07240000
C      -47.57070000     -31.46780000     -70.68780000
H      -47.89830000     -30.96750000     -69.82160000
H      -48.40370000     -32.07020000     -71.13470000
C      -43.48700000     -34.76030000     -72.09250000
H      -43.36260000     -35.82760000     -72.03670000
H      -44.53040000     -34.60970000     -72.48710000
C      -43.43330000     -34.19180000     -70.64040000
H      -42.35000000     -34.26460000     -70.36850000
H      -43.79240000     -33.09860000     -70.63790000
C      -46.32650000     -32.33510000     -70.45590000
H      -45.51310000     -31.69010000     -70.14840000
H      -46.09250000     -32.80740000     -71.45870000
C      -46.51690000     -33.39710000     -69.38750000
C      -47.73610000     -33.52010000     -68.64720000
C      -45.54400000     -34.42310000     -69.07710000
H      -48.56120000     -32.86770000     -68.55610000
C      -46.03080000     -35.21240000     -68.00530000
C      -44.30870000     -34.93350000     -69.62800000
C      -43.86210000     -36.08710000     -68.92050000
S      -47.62510000     -34.86040000     -67.51080000
S      -45.04980000     -36.60490000     -67.68320000
H      -43.05340000     -36.80360000     -69.10700000
