40
Properties=species:S:1:pos:R:3 #=T CELL(abcABC):=T 1.889726e+02=T 90.00000=T Traj:=T positionsangstrom=T Step:=T 0=T Bead:=T pbc="F F F"
C      -45.76520000     -29.01770000     -70.44050000
C      -46.08270000     -30.30380000     -70.05560000
C      -44.97380000     -31.13060000     -69.77210000
C      -43.67280000     -30.78520000     -70.04810000
C      -43.49330000     -29.55540000     -70.69190000
C      -44.51210000     -28.65210000     -70.88070000
H      -46.64100000     -28.31170000     -70.56680000
H      -45.17010000     -32.12780000     -69.27970000
H      -42.48230000     -29.28500000     -71.01490000
H      -44.17790000     -27.65490000     -71.20770000
C      -42.51550000     -31.72120000     -69.72930000
H      -42.41180000     -31.92170000     -68.69330000
H      -41.54620000     -31.34150000     -69.98460000
C      -47.49020000     -30.72940000     -69.92580000
H      -47.63870000     -31.20470000     -68.97790000
H      -48.13690000     -29.98150000     -70.11950000
S      -42.66150000     -33.36460000     -70.53870000
S      -47.70570000     -32.27140000     -70.98750000
C      -42.94660000     -32.97190000     -72.26310000
H      -43.68090000     -32.10640000     -72.41160000
H      -42.00240000     -32.61390000     -72.68980000
C      -46.57900000     -32.02240000     -72.45300000
H      -45.52450000     -32.02330000     -72.04230000
H      -46.83070000     -31.12760000     -73.06240000
C      -46.71480000     -33.16230000     -73.41450000
H      -47.54350000     -33.09180000     -74.00450000
H      -45.83490000     -33.11450000     -74.05540000
C      -43.36890000     -34.10590000     -73.18680000
H      -42.48600000     -34.48230000     -73.70390000
H      -44.07530000     -33.72180000     -73.91290000
C      -44.13570000     -35.21980000     -72.39140000
C      -43.51570000     -36.31900000     -71.80310000
C      -45.56060000     -35.31810000     -72.31180000
H      -42.44200000     -36.62080000     -71.70460000
C      -45.98170000     -36.39220000     -71.56600000
C      -46.77480000     -34.49400000     -72.76090000
C      -47.99160000     -35.11590000     -72.49530000
S      -44.72180000     -37.32610000     -70.92560000
S      -47.68320000     -36.55190000     -71.48010000
H      -48.95190000     -34.73720000     -72.69470000
