40
Properties=species:S:1:pos:R:3 #=T CELL(abcABC):=T 1.889726e+02=T 90.00000=T Traj:=T positionsangstrom=T Step:=T 0=T Bead:=T pbc="F F F"
C      -43.51970000     -32.53100000     -75.61700000
C      -43.59020000     -32.31860000     -74.25170000
C      -44.74400000     -31.75640000     -73.68850000
C      -45.89240000     -31.64030000     -74.49280000
C      -45.86730000     -32.01580000     -75.79990000
C      -44.65900000     -32.48790000     -76.38390000
H      -42.54930000     -32.93290000     -75.91810000
H      -44.85450000     -31.53840000     -72.60430000
H      -46.70200000     -31.91280000     -76.53950000
H      -44.70540000     -32.62720000     -77.42940000
C      -47.21950000     -31.52040000     -73.78430000
H      -47.49650000     -32.47650000     -73.40510000
H      -48.04070000     -31.08680000     -74.36670000
C      -42.37760000     -32.48300000     -73.47390000
H      -41.50980000     -32.08750000     -74.01640000
H      -42.49900000     -31.98280000     -72.52970000
S      -47.16420000     -30.35130000     -72.31790000
S      -42.14760000     -34.37440000     -73.14570000
C      -47.56520000     -31.48910000     -70.93100000
H      -47.96810000     -30.87040000     -70.15930000
H      -48.29270000     -32.20920000     -71.31320000
C      -43.48820000     -34.74190000     -71.82080000
H      -43.44430000     -35.82490000     -71.60940000
H      -44.45020000     -34.51770000     -72.27160000
C      -43.40300000     -33.95390000     -70.50230000
H      -42.44490000     -33.89220000     -69.93310000
H      -43.83500000     -32.98580000     -70.61190000
C      -46.34660000     -32.27560000     -70.43150000
H      -45.56050000     -31.57320000     -70.02100000
H      -45.89820000     -32.76590000     -71.25640000
C      -46.70860000     -33.30930000     -69.42410000
C      -47.87180000     -33.42890000     -68.70740000
C      -45.68960000     -34.28710000     -69.01130000
H      -48.70430000     -32.71580000     -68.77890000
C      -46.17900000     -35.11270000     -68.01720000
C      -44.32190000     -34.71050000     -69.44170000
C      -43.96490000     -35.83650000     -68.75420000
S      -47.76640000     -34.68040000     -67.49420000
S      -45.05370000     -36.31060000     -67.48110000
H      -43.10550000     -36.43540000     -69.06590000
