40
Properties=species:S:1:pos:R:3 #=T CELL(abcABC):=T 1.889726e+02=T 90.00000=T Traj:=T positionsangstrom=T Step:=T 0=T Bead:=T pbc="F F F"
C      -44.51470000     -31.83510000     -75.27950000
C      -44.17610000     -31.48970000     -73.95940000
C      -45.11950000     -30.96930000     -73.08100000
C      -46.43160000     -30.81920000     -73.49030000
C      -46.83350000     -31.32160000     -74.79560000
C      -45.89260000     -31.90050000     -75.59700000
H      -43.86000000     -32.41700000     -75.97050000
H      -44.87960000     -30.69830000     -72.05580000
H      -47.84220000     -31.23820000     -75.10220000
H      -46.13850000     -32.25690000     -76.57590000
C      -47.54440000     -30.12370000     -72.73490000
H      -48.49500000     -30.50070000     -72.99280000
H      -47.63110000     -29.01060000     -73.00730000
C      -42.74010000     -31.62900000     -73.41300000
H      -41.98150000     -31.09490000     -74.03660000
H      -42.67900000     -31.09760000     -72.44910000
S      -47.42180000     -30.20540000     -70.89830000
S      -42.20470000     -33.34580000     -73.48690000
C      -47.65590000     -32.01930000     -70.35510000
H      -47.86210000     -32.07680000     -69.20100000
H      -48.58880000     -32.33720000     -70.87270000
C      -43.59850000     -34.04080000     -72.52950000
H      -43.83170000     -35.04680000     -72.82350000
H      -44.50850000     -33.42560000     -72.84080000
C      -43.34580000     -33.85700000     -70.94370000
H      -42.25350000     -33.87230000     -70.76680000
H      -43.59960000     -32.87030000     -70.64970000
C      -46.45650000     -32.87150000     -70.54610000
H      -45.63230000     -32.43410000     -69.93160000
H      -46.17660000     -32.88960000     -71.61790000
C      -46.52360000     -34.31570000     -69.91690000
C      -47.63140000     -34.79190000     -69.16160000
C      -45.31820000     -35.02810000     -69.62720000
H      -48.69030000     -34.54040000     -69.06090000
C      -45.49270000     -36.02620000     -68.68600000
C      -43.93800000     -34.87370000     -69.96580000
C      -43.18490000     -35.88060000     -69.36880000
S      -47.14760000     -36.30750000     -68.32710000
S      -44.08950000     -36.85410000     -68.20340000
H      -42.13160000     -36.03400000     -69.60130000
