40
Properties=species:S:1:pos:R:3 #=T CELL(abcABC):=T 1.889726e+02=T 90.00000=T Traj:=T positionsangstrom=T Step:=T 0=T Bead:=T pbc="F F F"
C      -44.35730000     -31.74670000     -75.46750000
C      -44.20930000     -31.57830000     -74.07470000
C      -45.23290000     -31.14290000     -73.24840000
C      -46.47240000     -31.03430000     -73.85810000
C      -46.63640000     -31.13280000     -75.23460000
C      -45.57800000     -31.44370000     -76.07750000
H      -43.57070000     -32.13500000     -76.01920000
H      -45.13300000     -31.05670000     -72.14230000
H      -47.56250000     -30.82750000     -75.73520000
H      -45.72870000     -31.42520000     -77.15420000
C      -47.63540000     -30.48980000     -72.99230000
H      -48.50540000     -31.15350000     -73.01630000
H      -47.99100000     -29.61710000     -73.39170000
C      -42.83530000     -31.71580000     -73.44700000
H      -42.11720000     -31.17980000     -74.08930000
H      -42.69260000     -31.39730000     -72.36410000
S      -47.31880000     -30.25040000     -71.18910000
S      -42.20640000     -33.59260000     -73.40120000
C      -47.70720000     -31.92510000     -70.49160000
H      -47.88640000     -31.83860000     -69.44080000
H      -48.65800000     -32.32000000     -70.99670000
C      -43.28120000     -34.31850000     -72.13970000
H      -43.17140000     -35.44010000     -72.16840000
H      -44.25620000     -34.20250000     -72.47950000
C      -43.17940000     -33.84910000     -70.69760000
H      -42.19370000     -33.79000000     -70.37270000
H      -43.59870000     -32.87410000     -70.60670000
C      -46.56650000     -32.99710000     -70.70390000
H      -45.58410000     -32.54800000     -70.78760000
H      -46.58560000     -33.44690000     -71.69820000
C      -46.48700000     -34.11360000     -69.65590000
C      -47.61150000     -34.41890000     -68.91800000
C      -45.34830000     -34.94050000     -69.32030000
H      -48.56700000     -33.93850000     -69.00880000
C      -45.56450000     -36.00670000     -68.48150000
C      -43.95600000     -34.82070000     -69.73710000
C      -43.21490000     -35.88480000     -69.23390000
S      -47.34510000     -35.84510000     -67.93020000
S      -44.21570000     -37.06990000     -68.23690000
H      -42.15540000     -35.99490000     -69.20790000
