40
Properties=species:S:1:pos:R:3 #=T CELL(abcABC):=T 1.889726e+02=T 90.00000=T Traj:=T positionsangstrom=T Step:=T 0=T Bead:=T pbc="F F F"
C      -43.92880000     -32.05690000     -75.64400000
C      -43.83570000     -31.84520000     -74.24350000
C      -44.98400000     -31.52370000     -73.51900000
C      -46.19570000     -31.39890000     -74.15390000
C      -46.29530000     -31.48190000     -75.55890000
C      -45.16830000     -31.78520000     -76.29860000
H      -43.09960000     -32.22480000     -76.22080000
H      -44.85790000     -31.28460000     -72.48110000
H      -47.24200000     -31.40350000     -76.04490000
H      -45.26630000     -31.64700000     -77.40800000
C      -47.47280000     -31.10200000     -73.44450000
H      -48.06290000     -31.93900000     -73.25640000
H      -48.07270000     -30.43460000     -74.14640000
C      -42.50430000     -32.10110000     -73.52560000
H      -41.58840000     -31.87100000     -74.00520000
H      -42.52050000     -31.56200000     -72.53350000
S      -47.42080000     -30.22050000     -71.85430000
S      -42.32920000     -34.05820000     -73.25540000
C      -47.50000000     -31.59060000     -70.54010000
H      -47.45410000     -31.04030000     -69.59890000
H      -48.48560000     -32.07430000     -70.70750000
C      -43.68730000     -34.20170000     -72.04240000
H      -44.05620000     -35.21990000     -72.12600000
H      -44.52330000     -33.56620000     -72.28600000
C      -43.27480000     -33.89050000     -70.60950000
H      -42.20870000     -34.14360000     -70.47040000
H      -43.31040000     -32.82900000     -70.40520000
C      -46.40440000     -32.63750000     -70.54610000
H      -45.46160000     -32.04990000     -70.41500000
H      -46.47470000     -33.21500000     -71.47130000
C      -46.52680000     -33.68120000     -69.38910000
C      -47.55880000     -33.94780000     -68.59060000
C      -45.41200000     -34.56890000     -69.08890000
H      -48.55690000     -33.42270000     -68.44100000
C      -45.78630000     -35.57150000     -68.19690000
C      -44.06700000     -34.79700000     -69.57530000
C      -43.54410000     -35.94510000     -69.01640000
S      -47.41640000     -35.41630000     -67.59440000
S      -44.63320000     -36.81630000     -67.95740000
H      -42.59790000     -36.34260000     -69.28480000
