40
Properties=species:S:1:pos:R:3 #=T CELL(abcABC):=T 1.889726e+02=T 90.00000=T Traj:=T positionsangstrom=T Step:=T 0=T Bead:=T pbc="F F F"
C      -44.37920000     -31.80820000     -75.36340000
C      -44.10220000     -31.34990000     -74.03710000
C      -45.13550000     -30.83950000     -73.25090000
C      -46.44520000     -30.88070000     -73.69250000
C      -46.73020000     -31.26230000     -75.04670000
C      -45.65020000     -31.67330000     -75.89310000
H      -43.62100000     -32.13860000     -76.05330000
H      -44.89620000     -30.40530000     -72.28620000
H      -47.68390000     -31.23870000     -75.50960000
H      -45.94090000     -32.08050000     -76.82020000
C      -47.60650000     -30.44210000     -72.84850000
H      -48.56260000     -31.00530000     -72.98330000
H      -47.68660000     -29.37940000     -73.16170000
C      -42.72280000     -31.66380000     -73.63920000
H      -41.98680000     -31.28880000     -74.33130000
H      -42.61280000     -31.15980000     -72.69270000
S      -47.34910000     -30.31300000     -70.96660000
S      -42.28960000     -33.44170000     -73.41520000
C      -47.77270000     -32.03140000     -70.35600000
H      -48.06630000     -31.88550000     -69.32450000
H      -48.65550000     -32.20120000     -70.92060000
C      -43.42750000     -34.36670000     -72.23640000
H      -43.00210000     -35.33980000     -72.29360000
H      -44.49500000     -34.34940000     -72.59370000
C      -43.25420000     -33.83130000     -70.82220000
H      -42.14230000     -33.90570000     -70.57770000
H      -43.52130000     -32.73660000     -70.76430000
C      -46.59760000     -32.98860000     -70.57480000
H      -45.78060000     -32.34820000     -70.24180000
H      -46.41430000     -33.20880000     -71.65320000
C      -46.55880000     -34.22720000     -69.79570000
C      -47.64390000     -34.64790000     -68.98970000
C      -45.31580000     -34.90470000     -69.46440000
H      -48.63210000     -34.21750000     -69.09990000
C      -45.52610000     -35.93580000     -68.56230000
C      -43.90870000     -34.78390000     -69.87640000
C      -43.23100000     -35.85130000     -69.29750000
S      -47.24780000     -36.10260000     -68.12100000
S      -44.15270000     -36.93980000     -68.26810000
H      -42.14090000     -35.88810000     -69.33330000
