40
Properties=species:S:1:pos:R:3 #=T CELL(abcABC):=T 1.889726e+02=T 90.00000=T Traj:=T positionsangstrom=T Step:=T 0=T Bead:=T pbc="F F F"
C      -44.09700000     -35.56210000     -68.28370000
C      -45.00660000     -34.47190000     -68.14460000
C      -46.33690000     -34.73750000     -68.49990000
C      -46.68910000     -36.04350000     -68.87430000
C      -45.75990000     -37.14810000     -68.95680000
C      -44.46030000     -36.83100000     -68.71250000
H      -43.01630000     -35.36790000     -68.10450000
H      -47.22290000     -34.02640000     -68.32320000
H      -46.18170000     -38.10760000     -69.28730000
H      -43.65030000     -37.54720000     -68.75890000
C      -48.18180000     -36.17510000     -69.33490000
H      -48.88850000     -35.62830000     -68.70690000
H      -48.55470000     -37.19860000     -69.53090000
C      -44.48970000     -33.02510000     -67.89810000
H      -45.37030000     -32.39800000     -67.75450000
H      -43.75530000     -33.00410000     -67.00990000
S      -48.37520000     -35.44730000     -71.10940000
S      -43.55760000     -32.37920000     -69.38150000
C      -47.18410000     -34.00310000     -71.28430000
H      -47.10260000     -33.40590000     -70.32090000
H      -46.18620000     -34.48220000     -71.44560000
C      -44.26630000     -30.73060000     -69.63740000
H      -43.50220000     -29.98640000     -69.74930000
H      -44.83180000     -30.45510000     -68.76080000
C      -45.18560000     -30.85040000     -70.82260000
H      -45.92680000     -31.55300000     -70.67980000
H      -45.71760000     -29.89030000     -70.98700000
C      -47.52660000     -33.03890000     -72.43380000
H      -47.76230000     -32.10690000     -71.85890000
H      -48.28730000     -33.37560000     -73.09790000
C      -46.35300000     -32.73160000     -73.31300000
C      -46.33770000     -33.42200000     -74.51200000
C      -45.16220000     -31.89110000     -73.10170000
H      -47.10210000     -34.21820000     -74.78880000
C      -44.29440000     -31.97690000     -74.23390000
C      -44.50480000     -31.17930000     -72.08040000
C      -43.22970000     -30.73130000     -72.41010000
S      -44.88720000     -33.06740000     -75.44410000
S      -42.77060000     -31.18390000     -74.03010000
H      -42.43290000     -30.36780000     -71.75110000
