40
Properties=species:S:1:pos:R:3 #=T CELL(abcABC):=T 1.889726e+02=T 90.00000=T Traj:=T positionsangstrom=T Step:=T 0=T Bead:=T pbc="F F F"
C      -41.84980000     -31.84750000     -70.60880000
C      -42.50110000     -31.60710000     -71.81470000
C      -43.56050000     -30.68300000     -71.90440000
C      -43.93460000     -30.02380000     -70.69900000
C      -43.24550000     -30.18700000     -69.49070000
C      -42.16900000     -31.08240000     -69.45320000
H      -40.97620000     -32.46950000     -70.61190000
H      -44.05830000     -30.29980000     -72.80130000
H      -43.49340000     -29.57150000     -68.63480000
H      -41.59890000     -31.12380000     -68.56760000
C      -45.16560000     -29.14980000     -70.79640000
H      -45.27760000     -28.81820000     -71.86540000
H      -45.11330000     -28.20950000     -70.18980000
C      -42.03410000     -32.25800000     -73.09280000
H      -42.43940000     -31.70790000     -73.99230000
H      -40.96700000     -32.35800000     -73.39640000
S      -46.71700000     -29.97750000     -70.20010000
S      -42.76280000     -34.00290000     -73.29870000
C      -46.69690000     -31.72670000     -70.83100000
H      -47.40100000     -31.88460000     -71.58470000
H      -45.74190000     -31.98070000     -71.35790000
C      -42.83770000     -34.68960000     -71.60650000
H      -42.15320000     -34.19060000     -70.94420000
H      -42.56690000     -35.72680000     -71.74890000
C      -44.19460000     -34.50030000     -71.00220000
H      -44.08870000     -34.67430000     -69.93930000
H      -44.51030000     -33.49270000     -71.25670000
C      -46.91400000     -32.82550000     -69.81830000
H      -47.71270000     -32.58190000     -69.11470000
H      -45.96460000     -33.08150000     -69.27020000
C      -47.47420000     -34.09550000     -70.51850000
C      -48.80260000     -34.30940000     -70.41130000
C      -46.64350000     -35.12490000     -71.26030000
H      -49.54270000     -33.70120000     -69.87240000
C      -47.55570000     -36.15520000     -71.61240000
C      -45.26110000     -35.49120000     -71.57100000
C      -45.07380000     -36.69250000     -72.23070000
S      -49.21170000     -35.81790000     -71.21630000
S      -46.69680000     -37.44610000     -72.40110000
H      -44.15780000     -37.06450000     -72.66490000
