40
Properties=species:S:1:pos:R:3 #=T CELL(abcABC):=T 1.889726e+02=T 90.00000=T Traj:=T positionsangstrom=T Step:=T 0=T Bead:=T pbc="F F F"
C      -44.92390000     -32.35240000     -74.72380000
C      -44.47680000     -31.42350000     -73.76280000
C      -45.35280000     -30.65930000     -72.99920000
C      -46.75110000     -30.62980000     -73.25010000
C      -47.21720000     -31.52420000     -74.29230000
C      -46.31240000     -32.34800000     -74.97330000
H      -44.25980000     -32.81120000     -75.42570000
H      -44.90980000     -29.87700000     -72.37750000
H      -48.28590000     -31.46910000     -74.47100000
H      -46.66310000     -32.96920000     -75.73990000
C      -47.67120000     -29.84430000     -72.34120000
H      -48.72720000     -30.09800000     -72.47220000
H      -47.43960000     -28.70100000     -72.38880000
C      -43.07070000     -31.30520000     -73.40180000
H      -42.46380000     -30.70600000     -74.12670000
H      -42.96190000     -30.83020000     -72.37870000
S      -47.37430000     -30.32370000     -70.50020000
S      -42.14820000     -32.89080000     -73.35750000
C      -47.53510000     -32.13230000     -70.41440000
H      -47.97780000     -32.36520000     -69.40540000
H      -48.21600000     -32.54470000     -71.15310000
C      -43.05400000     -34.03060000     -72.18640000
H      -42.60440000     -34.96250000     -72.35610000
H      -44.13380000     -34.12950000     -72.48390000
C      -43.00860000     -33.70570000     -70.71270000
H      -41.94500000     -33.80400000     -70.33270000
H      -43.40810000     -32.71660000     -70.52340000
C      -46.19290000     -32.83760000     -70.54930000
H      -45.41410000     -32.43070000     -69.88390000
H      -45.69040000     -32.63060000     -71.52330000
C      -46.33850000     -34.31300000     -70.30530000
C      -47.52620000     -34.90050000     -69.94420000
C      -45.15500000     -35.04290000     -69.86350000
H      -48.48910000     -34.60320000     -70.17090000
C      -45.48520000     -36.23640000     -69.15610000
C      -43.71350000     -34.80900000     -69.95690000
C      -43.03590000     -35.80710000     -69.27670000
S      -47.20650000     -36.43720000     -69.12460000
S      -44.01580000     -37.02940000     -68.53010000
H      -41.93440000     -35.89800000     -69.34270000
