40
Properties=species:S:1:pos:R:3 #=T CELL(abcABC):=T 1.889726e+02=T 90.00000=T Traj:=T positionsangstrom=T Step:=T 0=T Bead:=T pbc="F F F"
C      -49.15980000     -33.26150000     -69.97480000
C      -48.48780000     -32.38480000     -70.90680000
C      -47.33360000     -31.73800000     -70.32410000
C      -47.03460000     -31.85020000     -68.96970000
C      -47.70730000     -32.80980000     -68.15540000
C      -48.74260000     -33.53310000     -68.64780000
H      -50.04560000     -33.69690000     -70.35420000
H      -46.81200000     -31.03680000     -71.03780000
H      -47.33390000     -33.01070000     -67.16240000
H      -49.31510000     -34.31670000     -68.09130000
C      -45.92010000     -31.00540000     -68.37790000
H      -46.32190000     -30.36860000     -67.53510000
H      -45.56230000     -30.30680000     -69.11670000
C      -48.94550000     -32.06520000     -72.27120000
H      -49.85330000     -32.67620000     -72.44660000
H      -49.35900000     -31.05840000     -72.29440000
S      -44.60510000     -31.88480000     -67.46440000
S      -47.67370000     -32.18240000     -73.57670000
C      -43.41810000     -32.50410000     -68.80750000
H      -42.58710000     -31.86850000     -68.99820000
H      -43.04280000     -33.42110000     -68.26800000
C      -47.41590000     -33.94910000     -73.67730000
H      -47.23330000     -34.25310000     -74.71040000
H      -48.32340000     -34.47730000     -73.45830000
C      -46.44430000     -34.42320000     -72.58530000
H      -46.48720000     -33.66700000     -71.76730000
H      -46.71690000     -35.37560000     -72.07820000
C      -44.15190000     -33.04380000     -70.02660000
H      -44.52030000     -32.26560000     -70.65650000
H      -45.15420000     -33.45470000     -69.65570000
C      -43.39900000     -34.01890000     -70.90580000
C      -41.98620000     -34.17000000     -70.74070000
C      -43.83260000     -34.45040000     -72.27370000
H      -41.57690000     -33.95400000     -69.69020000
C      -42.67160000     -34.76060000     -73.00700000
C      -45.04880000     -34.60480000     -73.05430000
C      -44.74770000     -35.00160000     -74.32820000
S      -41.15250000     -34.81890000     -72.22530000
S      -43.07130000     -35.33300000     -74.65010000
H      -45.52940000     -35.06880000     -75.15020000
