40
Properties=species:S:1:pos:R:3 #=T CELL(abcABC):=T 1.889726e+02=T 90.00000=T Traj:=T positionsangstrom=T Step:=T 0=T Bead:=T pbc="F F F"
C      -45.24410000     -32.13290000     -74.79320000
C      -44.88680000     -31.27220000     -73.67140000
C      -45.90230000     -30.64260000     -72.90970000
C      -47.20880000     -31.06200000     -73.14030000
C      -47.55240000     -31.85900000     -74.21210000
C      -46.59330000     -32.27480000     -75.12710000
H      -44.45490000     -32.57390000     -75.39630000
H      -45.66220000     -29.94050000     -72.09160000
H      -48.62180000     -32.03810000     -74.46920000
H      -46.88560000     -32.91700000     -75.99770000
C      -48.32310000     -30.49810000     -72.37160000
H      -49.32060000     -30.90360000     -72.67140000
H      -48.43630000     -29.38020000     -72.41130000
C      -43.39210000     -30.87100000     -73.33250000
H      -43.10740000     -29.95760000     -73.98070000
H      -43.39460000     -30.59170000     -72.28160000
S      -48.12370000     -30.63650000     -70.50490000
S      -42.05160000     -32.15990000     -73.48420000
C      -47.88270000     -32.47100000     -70.23480000
H      -48.41150000     -32.68720000     -69.31550000
H      -48.44000000     -32.92690000     -71.03930000
C      -42.86820000     -33.60470000     -72.60260000
H      -42.20820000     -34.47240000     -72.62630000
H      -43.78720000     -33.82790000     -73.11990000
C      -43.15260000     -33.43320000     -71.10380000
H      -42.27640000     -33.05820000     -70.58500000
H      -43.93450000     -32.75790000     -70.83490000
C      -46.35990000     -32.92160000     -70.16390000
H      -45.87110000     -32.11860000     -69.59960000
H      -46.08380000     -32.89310000     -71.21390000
C      -46.08690000     -34.25400000     -69.59400000
C      -47.08120000     -35.06160000     -68.99890000
C      -44.83810000     -34.97310000     -69.69160000
H      -48.16050000     -34.72650000     -68.71630000
C      -44.88680000     -36.25180000     -69.14880000
C      -43.53070000     -34.75490000     -70.33250000
C      -42.70240000     -35.82700000     -70.14720000
S      -46.42480000     -36.63670000     -68.52390000
S      -43.35390000     -37.14910000     -69.18880000
H      -41.70830000     -35.78280000     -70.54330000
