40
Properties=species:S:1:pos:R:3 #=T CELL(abcABC):=T 1.889726e+02=T 90.00000=T Traj:=T positionsangstrom=T Step:=T 0=T Bead:=T pbc="F F F"
C      -49.11420000     -33.15560000     -69.98480000
C      -48.56450000     -32.15460000     -70.74430000
C      -47.50410000     -31.43870000     -70.13530000
C      -46.99970000     -31.82730000     -68.86980000
C      -47.64100000     -32.73090000     -68.09940000
C      -48.65260000     -33.48390000     -68.72740000
H      -49.91800000     -33.74840000     -70.44250000
H      -47.09140000     -30.62140000     -70.69410000
H      -47.26690000     -33.01320000     -67.15810000
H      -49.24590000     -34.22680000     -68.20140000
C      -45.74020000     -31.04960000     -68.34670000
H      -45.90830000     -30.26550000     -67.56430000
H      -45.28580000     -30.51580000     -69.17890000
C      -49.01520000     -31.82060000     -72.07210000
H      -49.87110000     -32.40770000     -72.46090000
H      -49.20000000     -30.75000000     -72.16630000
S      -44.48330000     -32.13230000     -67.50880000
S      -47.67160000     -32.08160000     -73.32730000
C      -43.56900000     -32.89410000     -68.85510000
H      -42.87290000     -32.07250000     -69.17590000
H      -42.93390000     -33.69320000     -68.47360000
C      -47.48160000     -33.95050000     -73.25800000
H      -47.21040000     -34.06110000     -74.37380000
H      -48.49140000     -34.35010000     -73.07860000
C      -46.30530000     -34.53310000     -72.38870000
H      -46.25540000     -34.02260000     -71.43320000
H      -46.69820000     -35.47530000     -72.03700000
C      -44.32430000     -33.36670000     -70.02130000
H      -44.67820000     -32.40800000     -70.36120000
H      -45.14120000     -34.08660000     -69.74780000
C      -43.35400000     -33.91320000     -71.15780000
C      -41.94610000     -33.93410000     -71.05740000
C      -43.76670000     -34.45050000     -72.41610000
H      -41.35900000     -33.76150000     -70.15500000
C      -42.69460000     -34.79110000     -73.19540000
C      -44.98100000     -34.71300000     -73.10880000
C      -44.84530000     -35.13130000     -74.37720000
S      -41.17310000     -34.71670000     -72.36600000
S      -43.17720000     -35.35470000     -74.81650000
H      -45.63820000     -35.50150000     -75.11730000
