40
Properties=species:S:1:pos:R:3 #=T CELL(abcABC):=T 1.889726e+02=T 90.00000=T Traj:=T positionsangstrom=T Step:=T 0=T Bead:=T pbc="F F F"
C      -49.07640000     -33.39940000     -70.15200000
C      -48.43490000     -32.33570000     -70.96170000
C      -47.43610000     -31.59040000     -70.35450000
C      -47.08810000     -31.75560000     -69.03780000
C      -47.68640000     -32.77570000     -68.33130000
C      -48.73600000     -33.51320000     -68.78300000
H      -49.84620000     -34.00980000     -70.58880000
H      -46.93630000     -30.83620000     -70.98230000
H      -47.37760000     -32.84920000     -67.23980000
H      -49.20060000     -34.31640000     -68.13780000
C      -46.03410000     -30.89430000     -68.47050000
H      -46.46860000     -30.15110000     -67.79850000
H      -45.48020000     -30.29630000     -69.25210000
C      -49.07850000     -32.05000000     -72.29880000
H      -49.90170000     -32.77870000     -72.47300000
H      -49.48640000     -31.02480000     -72.42060000
S      -44.59650000     -31.81150000     -67.52670000
S      -47.88690000     -32.16930000     -73.72430000
C      -43.66360000     -32.53660000     -68.90650000
H      -43.24230000     -31.78500000     -69.62380000
H      -42.84930000     -33.07940000     -68.36340000
C      -47.38310000     -33.93340000     -73.56370000
H      -47.25910000     -34.34790000     -74.55370000
H      -48.36280000     -34.34780000     -73.15860000
C      -46.27570000     -34.23600000     -72.58090000
H      -46.09610000     -33.38140000     -71.90330000
H      -46.62440000     -35.13450000     -72.04670000
C      -44.37260000     -33.47190000     -69.84790000
H      -45.17000000     -32.86620000     -70.31390000
H      -44.82380000     -34.38800000     -69.48740000
C      -43.40500000     -33.83270000     -71.00690000
C      -42.03460000     -34.04520000     -70.67390000
C      -43.67330000     -34.42430000     -72.31490000
H      -41.46440000     -33.47530000     -69.83860000
C      -42.50940000     -34.93900000     -72.91180000
C      -44.89040000     -34.42130000     -73.11900000
C      -44.59630000     -35.01320000     -74.31460000
S      -41.13250000     -34.94570000     -71.87410000
S      -42.91120000     -35.44440000     -74.54190000
H      -45.27410000     -35.22520000     -75.12270000
