40
Properties=species:S:1:pos:R:3 #=T CELL(abcABC):=T 1.889726e+02=T 90.00000=T Traj:=T positionsangstrom=T Step:=T 0=T Bead:=T pbc="F F F"
C      -46.42450000     -35.90150000     -69.20410000
C      -45.12580000     -36.08350000     -69.58550000
C      -44.86160000     -36.47540000     -70.93130000
C      -45.91500000     -36.65790000     -71.87010000
C      -47.28730000     -36.58690000     -71.38720000
C      -47.49770000     -36.11880000     -70.11300000
H      -46.65120000     -35.55770000     -68.22260000
H      -43.84670000     -36.52940000     -71.32460000
H      -48.17480000     -36.77000000     -72.04790000
H      -48.56990000     -36.04970000     -69.76310000
C      -45.67500000     -37.08540000     -73.33640000
H      -46.46330000     -36.90570000     -73.99360000
H      -45.33060000     -38.12620000     -73.43310000
C      -43.97340000     -35.74030000     -68.60620000
H      -43.89230000     -36.51480000     -67.87730000
H      -43.01230000     -35.76990000     -69.05690000
S      -44.31120000     -36.03780000     -74.23800000
S      -44.27060000     -34.35230000     -67.37840000
C      -45.08960000     -34.35700000     -74.30260000
H      -44.49740000     -33.83340000     -75.06150000
H      -46.09240000     -34.38450000     -74.69550000
C      -44.28530000     -32.68440000     -68.31440000
H      -43.39490000     -32.18020000     -68.01830000
H      -45.09770000     -32.13180000     -67.88580000
C      -44.48660000     -32.83690000     -69.84940000
H      -43.70570000     -33.39610000     -70.38830000
H      -45.41620000     -33.44530000     -70.00430000
C      -44.92250000     -33.60400000     -73.00910000
H      -43.77290000     -33.73020000     -72.70060000
H      -45.50890000     -34.13150000     -72.19580000
C      -45.41360000     -32.15030000     -72.99800000
C      -45.95960000     -31.49040000     -74.03700000
C      -45.23580000     -31.26860000     -71.85760000
H      -46.16910000     -31.90950000     -74.96950000
C      -45.74980000     -29.99550000     -72.03930000
C      -44.75220000     -31.46700000     -70.50920000
C      -44.87970000     -30.35810000     -69.74020000
S      -46.46140000     -29.83960000     -73.62440000
S      -45.47500000     -28.90110000     -70.68440000
H      -44.62820000     -30.28580000     -68.68730000
