40
Properties=species:S:1:pos:R:3 #=T CELL(abcABC):=T 1.889726e+02=T 90.00000=T Traj:=T positionsangstrom=T Step:=T 0=T Bead:=T pbc="F F F"
C      -49.17500000     -34.12230000     -70.68380000
C      -48.57130000     -33.07410000     -71.44850000
C      -47.81880000     -32.12690000     -70.75220000
C      -47.73240000     -31.97630000     -69.31700000
C      -48.44170000     -32.99910000     -68.62800000
C      -49.07530000     -34.05150000     -69.30210000
H      -49.66800000     -34.88320000     -71.24360000
H      -47.08500000     -31.39670000     -71.23040000
H      -48.42060000     -32.90990000     -67.52870000
H      -49.49620000     -34.81890000     -68.67780000
C      -46.96440000     -31.00870000     -68.60720000
H      -47.64710000     -30.54930000     -67.85410000
H      -46.67770000     -30.09790000     -69.31250000
C      -48.57080000     -33.30150000     -72.95500000
H      -48.09600000     -34.26400000     -73.15380000
H      -49.58760000     -33.42720000     -73.27020000
S      -45.36930000     -31.68390000     -67.85950000
S      -47.89840000     -31.97930000     -73.99910000
C      -44.53190000     -32.29860000     -69.35420000
H      -44.78420000     -31.70830000     -70.23210000
H      -43.47470000     -32.06130000     -69.25010000
C      -46.09770000     -32.64650000     -74.21340000
H      -45.63810000     -31.87270000     -74.73810000
H      -46.17120000     -33.59700000     -74.71850000
C      -45.41460000     -32.81570000     -72.84880000
H      -45.21810000     -31.90580000     -72.32010000
H      -46.18330000     -33.35950000     -72.27090000
C      -44.73380000     -33.77930000     -69.66250000
H      -45.73710000     -33.94830000     -70.16940000
H      -44.89130000     -34.41740000     -68.78050000
C      -43.59490000     -34.34690000     -70.44680000
C      -42.47550000     -34.95650000     -69.89130000
C      -43.42480000     -34.18530000     -71.87310000
H      -42.48880000     -35.29170000     -68.82420000
C      -42.25330000     -34.90000000     -72.25020000
C      -44.13800000     -33.63710000     -73.00320000
C      -43.48210000     -33.94540000     -74.17800000
S      -41.23970000     -35.41940000     -70.98180000
S      -41.99840000     -34.91840000     -73.98870000
H      -43.81940000     -33.58900000     -75.10870000
