40
Properties=species:S:1:pos:R:3 #=T CELL(abcABC):=T 1.889726e+02=T 90.00000=T Traj:=T positionsangstrom=T Step:=T 0=T Bead:=T pbc="F F F"
C      -48.62130000     -34.32070000     -71.51450000
C      -48.62830000     -32.98980000     -71.91710000
C      -48.26980000     -32.02170000     -70.93710000
C      -47.97260000     -32.41370000     -69.61230000
C      -47.98730000     -33.78130000     -69.27620000
C      -48.36530000     -34.73080000     -70.22090000
H      -48.88180000     -35.13440000     -72.24990000
H      -48.29140000     -31.03510000     -71.20620000
H      -47.62460000     -33.93990000     -68.22440000
H      -48.37280000     -35.79450000     -69.96300000
C      -47.67400000     -31.44150000     -68.58060000
H      -48.45670000     -31.57290000     -67.85460000
H      -47.64290000     -30.44630000     -69.05570000
C      -48.86000000     -32.70030000     -73.39180000
H      -49.16910000     -33.64540000     -73.88480000
H      -49.65980000     -31.98610000     -73.37500000
S      -46.05970000     -31.67760000     -67.67930000
S      -47.55320000     -31.95570000     -74.40780000
C      -44.80340000     -31.99320000     -69.07310000
H      -45.09350000     -31.48160000     -69.95720000
H      -43.80190000     -31.78160000     -68.59670000
C      -46.13580000     -33.10340000     -74.13630000
H      -45.57880000     -32.93110000     -75.02160000
H      -46.35610000     -34.13650000     -74.21840000
C      -45.32310000     -32.73070000     -72.85380000
H      -45.34020000     -31.62310000     -72.73100000
H      -45.86330000     -33.11380000     -71.94280000
C      -44.77070000     -33.50450000     -69.36200000
H      -45.71650000     -33.76860000     -69.81730000
H      -44.81710000     -34.14070000     -68.44810000
C      -43.57620000     -34.10930000     -70.12910000
C      -42.63820000     -34.94220000     -69.52480000
C      -43.29970000     -34.04840000     -71.59680000
H      -42.59990000     -35.05380000     -68.47520000
C      -42.15970000     -34.75970000     -71.92780000
C      -43.92540000     -33.39910000     -72.77010000
C      -43.16100000     -33.68050000     -73.92550000
S      -41.24580000     -35.45840000     -70.59990000
S      -41.71620000     -34.69130000     -73.60060000
H      -43.48910000     -33.50790000     -74.98740000
