40
Properties=species:S:1:pos:R:3 #=T CELL(abcABC):=T 1.889726e+02=T 90.00000=T Traj:=T positionsangstrom=T Step:=T 0=T Bead:=T pbc="F F F"
C      -49.12480000     -34.34310000     -71.90700000
C      -48.69130000     -33.07840000     -72.29050000
C      -48.37850000     -32.16860000     -71.27780000
C      -48.42760000     -32.55190000     -69.93190000
C      -48.93770000     -33.82590000     -69.61100000
C      -49.34230000     -34.68640000     -70.55630000
H      -49.31080000     -34.97000000     -72.73160000
H      -47.87120000     -31.19040000     -71.57440000
H      -48.93330000     -34.12980000     -68.59910000
H      -49.80440000     -35.68120000     -70.39450000
C      -47.99990000     -31.56470000     -68.85520000
H      -48.74060000     -31.42040000     -68.13980000
H      -47.79230000     -30.52260000     -69.16320000
C      -48.53790000     -32.84260000     -73.79850000
H      -48.57140000     -33.88030000     -74.30010000
H      -49.44750000     -32.19470000     -74.06240000
S      -46.50260000     -32.23440000     -67.84480000
S      -47.15680000     -31.86460000     -74.43470000
C      -45.15310000     -32.27540000     -69.12710000
H      -45.50980000     -31.88780000     -70.11090000
H      -44.41340000     -31.54320000     -68.81430000
C      -45.64860000     -32.82970000     -74.15690000
H      -44.87600000     -32.22590000     -74.54060000
H      -45.70530000     -33.70510000     -74.74790000
C      -45.30720000     -33.20350000     -72.67300000
H      -45.50120000     -32.30370000     -72.05440000
H      -46.05290000     -33.98110000     -72.30800000
C      -44.67330000     -33.74380000     -69.22870000
H      -45.43050000     -34.32640000     -69.75080000
H      -44.47720000     -34.07720000     -68.21440000
C      -43.35360000     -33.94690000     -69.91480000
C      -42.27010000     -34.49880000     -69.22060000
C      -43.10860000     -34.06380000     -71.33150000
H      -42.17960000     -34.30710000     -68.12740000
C      -41.84790000     -34.53460000     -71.65740000
C      -43.83760000     -33.65000000     -72.56200000
C      -43.06570000     -33.86420000     -73.68980000
S      -40.86800000     -34.76610000     -70.17270000
S      -41.43930000     -34.51950000     -73.37350000
H      -43.21170000     -33.48030000     -74.67720000
