40
Properties=species:S:1:pos:R:3 #=T CELL(abcABC):=T 1.889726e+02=T 90.00000=T Traj:=T positionsangstrom=T Step:=T 0=T Bead:=T pbc="F F F"
C      -46.49440000     -35.81040000     -69.29740000
C      -45.16330000     -35.97240000     -69.63660000
C      -44.79760000     -36.35690000     -70.91500000
C      -45.79380000     -36.69190000     -71.90610000
C      -47.16800000     -36.55810000     -71.52660000
C      -47.46060000     -36.14010000     -70.22190000
H      -46.79760000     -35.53460000     -68.25920000
H      -43.76730000     -36.54440000     -71.25280000
H      -47.87290000     -36.70700000     -72.33300000
H      -48.50790000     -35.95220000     -69.99670000
C      -45.31050000     -37.17160000     -73.29570000
H      -46.16470000     -37.54980000     -73.80180000
H      -44.73930000     -38.16240000     -73.05090000
C      -43.98740000     -35.76750000     -68.66850000
H      -43.75510000     -36.68490000     -68.11810000
H      -43.10740000     -35.36020000     -69.25670000
S      -44.23730000     -36.00690000     -74.13010000
S      -44.45470000     -34.42420000     -67.44390000
C      -45.12010000     -34.38250000     -74.23620000
H      -44.67460000     -33.84980000     -75.10510000
H      -46.17520000     -34.58670000     -74.47990000
C      -44.17130000     -32.74200000     -68.28730000
H      -43.13160000     -32.29550000     -68.00430000
H      -44.96430000     -32.05870000     -67.91650000
C      -44.30420000     -32.81520000     -69.84380000
H      -43.33810000     -33.06810000     -70.26780000
H      -45.03350000     -33.56160000     -70.20810000
C      -44.95700000     -33.61800000     -72.96020000
H      -43.97180000     -33.62470000     -72.61910000
H      -45.37510000     -34.21300000     -72.14730000
C      -45.55210000     -32.20100000     -72.97440000
C      -46.03840000     -31.44550000     -73.99850000
C      -45.32780000     -31.30170000     -71.79180000
H      -46.27590000     -32.00400000     -74.88550000
C      -45.77830000     -30.03970000     -72.01380000
C      -44.80070000     -31.45560000     -70.47610000
C      -45.02470000     -30.33290000     -69.74690000
S      -46.30490000     -29.73280000     -73.64690000
S      -45.68130000     -28.97820000     -70.66340000
H      -44.87480000     -30.23650000     -68.66100000
