40
Properties=species:S:1:pos:R:3 #=T CELL(abcABC):=T 1.889726e+02=T 90.00000=T Traj:=T positionsangstrom=T Step:=T 0=T Bead:=T pbc="F F F"
C      -43.20170000     -36.50940000     -70.75630000
C      -43.44120000     -36.10530000     -72.06720000
C      -44.72630000     -36.27950000     -72.53730000
C      -45.76660000     -36.75940000     -71.67460000
C      -45.48750000     -37.10790000     -70.34470000
C      -44.19410000     -36.97530000     -69.86120000
H      -42.12420000     -36.46560000     -70.42330000
H      -44.92090000     -36.24780000     -73.59910000
H      -46.26320000     -37.46620000     -69.62990000
H      -44.00620000     -37.40760000     -68.90370000
C      -47.22100000     -37.07260000     -72.13960000
H      -47.81910000     -37.69690000     -71.41120000
H      -47.36800000     -37.75740000     -72.98690000
C      -42.35540000     -35.54770000     -73.05410000
H      -41.38330000     -35.65080000     -72.60950000
H      -42.48890000     -36.19020000     -73.94470000
S      -48.19860000     -35.64900000     -72.76570000
S      -42.55700000     -33.73080000     -73.67040000
C      -47.90630000     -34.33010000     -71.47780000
H      -48.65800000     -33.50470000     -71.86210000
H      -48.17040000     -34.66450000     -70.44720000
C      -43.08890000     -32.63810000     -72.29930000
H      -42.21340000     -32.23550000     -71.96140000
H      -43.62040000     -33.24220000     -71.48530000
C      -44.15460000     -31.58640000     -72.71150000
H      -43.77830000     -31.11610000     -73.57090000
H      -44.94210000     -32.10940000     -73.21750000
C      -46.57860000     -33.57040000     -71.53000000
H      -46.45160000     -33.35900000     -72.58800000
H      -45.75990000     -34.22390000     -71.21330000
C      -46.55130000     -32.26940000     -70.72150000
C      -47.44190000     -32.24000000     -69.65120000
C      -45.65180000     -31.17360000     -70.74330000
H      -48.26160000     -32.93800000     -69.42850000
C      -45.85130000     -30.29240000     -69.66350000
C      -44.64000000     -30.64080000     -71.64890000
C      -44.07300000     -29.52580000     -71.18660000
S      -47.09630000     -30.90190000     -68.62360000
S      -44.70410000     -28.94940000     -69.64390000
H      -43.16610000     -29.02420000     -71.57040000
