40
Properties=species:S:1:pos:R:3 #=T CELL(abcABC):=T 1.889726e+02=T 90.00000=T Traj:=T positionsangstrom=T Step:=T 0=T Bead:=T pbc="F F F"
C      -43.11420000     -36.30110000     -70.80650000
C      -43.41140000     -36.08550000     -72.16750000
C      -44.70530000     -36.27540000     -72.60790000
C      -45.74190000     -36.78240000     -71.76210000
C      -45.42040000     -37.03490000     -70.38530000
C      -44.11810000     -36.78460000     -69.92810000
H      -42.13460000     -36.01440000     -70.47150000
H      -44.98560000     -35.84710000     -73.57790000
H      -46.17830000     -37.51260000     -69.77200000
H      -43.91460000     -36.96040000     -68.83340000
C      -47.16320000     -37.01540000     -72.25360000
H      -47.64470000     -37.50220000     -71.40920000
H      -47.06670000     -37.72890000     -73.07210000
C      -42.29620000     -35.66470000     -73.02320000
H      -41.36490000     -35.58890000     -72.44430000
H      -42.18160000     -36.38090000     -73.84070000
S      -48.05520000     -35.54330000     -72.90350000
S      -42.46580000     -33.86580000     -73.64760000
C      -47.96620000     -34.29870000     -71.49180000
H      -48.88650000     -33.80170000     -71.48710000
H      -47.89140000     -34.92240000     -70.58050000
C      -43.19970000     -32.95480000     -72.18500000
H      -42.44640000     -32.71090000     -71.37960000
H      -43.87950000     -33.64610000     -71.68680000
C      -43.94170000     -31.71020000     -72.69640000
H      -43.26600000     -30.88200000     -73.04590000
H      -44.75100000     -31.95710000     -73.54880000
C      -46.80720000     -33.39000000     -71.58380000
H      -46.71780000     -32.92580000     -72.58250000
H      -45.90790000     -34.05270000     -71.45730000
C      -46.69510000     -32.37860000     -70.47600000
C      -47.59130000     -32.15410000     -69.41210000
C      -45.74110000     -31.29150000     -70.63920000
H      -48.39720000     -32.77880000     -69.02120000
C      -45.86510000     -30.33490000     -69.61120000
C      -44.53870000     -30.97300000     -71.49380000
C      -43.95470000     -29.84520000     -71.08610000
S      -47.26890000     -30.60100000     -68.62750000
S      -44.81110000     -29.00160000     -69.73420000
H      -43.06870000     -29.31000000     -71.45820000
