40
Properties=species:S:1:pos:R:3 #=T CELL(abcABC):=T 1.889726e+02=T 90.00000=T Traj:=T positionsangstrom=T Step:=T 0=T Bead:=T pbc="F F F"
C      -48.03080000     -35.12860000     -72.91370000
C      -48.29830000     -33.79510000     -73.23310000
C      -48.54940000     -32.89960000     -72.24140000
C      -48.64610000     -33.35940000     -70.90160000
C      -48.57730000     -34.69720000     -70.61750000
C      -48.24240000     -35.61940000     -71.64830000
H      -47.95780000     -35.78230000     -73.71760000
H      -48.55980000     -31.86040000     -72.41060000
H      -48.73630000     -35.07230000     -69.55950000
H      -48.16730000     -36.71460000     -71.47930000
C      -48.84520000     -32.26700000     -69.82370000
H      -49.86820000     -32.15580000     -69.29740000
H      -48.57760000     -31.40650000     -70.37700000
C      -48.06430000     -33.25470000     -74.71030000
H      -48.03140000     -34.02440000     -75.42990000
H      -48.90830000     -32.54700000     -74.85890000
S      -47.59380000     -32.39280000     -68.42560000
S      -46.58550000     -32.14710000     -74.75260000
C      -46.02530000     -32.50960000     -69.32090000
H      -45.83000000     -31.83020000     -70.20730000
H      -45.37420000     -32.04190000     -68.58500000
C      -45.12980000     -33.11920000     -74.02320000
H      -44.35820000     -33.24660000     -74.80780000
H      -45.36320000     -34.19210000     -73.93370000
C      -44.59930000     -32.49780000     -72.76850000
H      -44.37510000     -31.41940000     -72.89850000
H      -45.43220000     -32.55560000     -72.06380000
C      -45.50540000     -33.92560000     -69.66250000
H      -45.94110000     -34.33950000     -70.65200000
H      -45.71940000     -34.56440000     -68.78250000
C      -43.99070000     -33.86700000     -69.70250000
C      -43.32640000     -34.27840000     -68.54590000
C      -43.18340000     -33.53090000     -70.81020000
H      -43.73760000     -34.78850000     -67.66260000
C      -41.83840000     -33.77260000     -70.49460000
C      -43.35530000     -33.07730000     -72.20740000
C      -42.14680000     -33.00300000     -72.82480000
S      -41.54420000     -34.18220000     -68.80290000
S      -40.77970000     -33.39550000     -71.83890000
H      -41.92070000     -32.67760000     -73.86260000
