40
Properties=species:S:1:pos:R:3 #=T CELL(abcABC):=T 1.889726e+02=T 90.00000=T Traj:=T positionsangstrom=T Step:=T 0=T Bead:=T pbc="F F F"
C      -47.97570000     -35.38210000     -72.79400000
C      -48.13940000     -34.03610000     -73.17010000
C      -48.50100000     -33.12120000     -72.18130000
C      -48.68520000     -33.47690000     -70.86650000
C      -48.64690000     -34.84070000     -70.51330000
C      -48.37340000     -35.76760000     -71.48450000
H      -47.80930000     -36.10180000     -73.56600000
H      -48.76340000     -32.04820000     -72.36620000
H      -48.76650000     -35.15400000     -69.49880000
H      -48.36870000     -36.83240000     -71.29640000
C      -48.96740000     -32.50810000     -69.79070000
H      -50.00110000     -32.63600000     -69.50780000
H      -49.01550000     -31.40170000     -70.16290000
C      -47.88950000     -33.54400000     -74.62950000
H      -47.85990000     -34.47390000     -75.34450000
H      -48.70080000     -32.95420000     -74.96890000
S      -47.78290000     -32.54240000     -68.40970000
S      -46.41880000     -32.52200000     -75.09140000
C      -46.14130000     -32.27960000     -69.25530000
H      -46.21370000     -31.38810000     -69.85830000
H      -45.48560000     -31.94680000     -68.41030000
C      -45.09270000     -33.27870000     -73.92520000
H      -44.30170000     -33.63210000     -74.62630000
H      -45.61320000     -34.15440000     -73.45980000
C      -44.55670000     -32.28520000     -72.85130000
H      -44.34270000     -31.34460000     -73.28330000
H      -45.36000000     -32.01800000     -72.18350000
C      -45.53310000     -33.58690000     -69.85760000
H      -45.74590000     -33.79870000     -70.91210000
H      -45.94770000     -34.46820000     -69.21830000
C      -44.03030000     -33.66260000     -69.69410000
C      -43.36160000     -34.16260000     -68.62910000
C      -43.18750000     -33.36120000     -70.86890000
H      -43.72240000     -34.49480000     -67.64730000
C      -41.85760000     -33.58630000     -70.48800000
C      -43.25970000     -32.74700000     -72.18700000
C      -42.02260000     -32.38310000     -72.62340000
S      -41.60200000     -34.27090000     -68.94200000
S      -40.72060000     -33.01650000     -71.63880000
H      -41.75250000     -31.98380000     -73.57640000
