40
Properties=species:S:1:pos:R:3 #=T CELL(abcABC):=T 1.889726e+02=T 90.00000=T Traj:=T positionsangstrom=T Step:=T 0=T Bead:=T pbc="F F F"
C      -48.65220000     -34.78560000     -72.42390000
C      -48.16550000     -33.45120000     -72.68570000
C      -48.05740000     -32.49750000     -71.65460000
C      -48.59730000     -32.88200000     -70.37510000
C      -49.13470000     -34.17270000     -70.14200000
C      -49.18610000     -35.10530000     -71.16480000
H      -48.77290000     -35.46120000     -73.27930000
H      -47.72970000     -31.55450000     -71.78850000
H      -49.27780000     -34.52080000     -69.10970000
H      -49.61820000     -36.07740000     -70.99830000
C      -48.56850000     -31.76720000     -69.33410000
H      -49.44910000     -31.59330000     -68.79960000
H      -48.25710000     -30.83330000     -69.80370000
C      -47.78950000     -33.07560000     -74.14800000
H      -47.50170000     -33.97530000     -74.72990000
H      -48.72080000     -32.67960000     -74.60190000
S      -47.24680000     -32.15710000     -68.04230000
S      -46.57880000     -31.74080000     -74.46970000
C      -45.68250000     -32.30220000     -69.02070000
H      -45.75070000     -31.53540000     -69.79970000
H      -44.88190000     -31.96900000     -68.34720000
C      -44.93620000     -32.65010000     -74.34910000
H      -44.13310000     -31.94070000     -74.43690000
H      -44.70170000     -33.30610000     -75.20820000
C      -44.97570000     -33.44510000     -73.06130000
H      -45.72620000     -32.96170000     -72.45000000
H      -45.39120000     -34.47250000     -73.24630000
C      -45.31750000     -33.68410000     -69.60080000
H      -45.92850000     -33.87320000     -70.55840000
H      -45.69580000     -34.35230000     -68.78960000
C      -43.85100000     -33.99330000     -69.86100000
C      -43.11490000     -34.63960000     -68.93800000
C      -43.18760000     -33.89390000     -71.12760000
H      -43.48900000     -34.69730000     -67.89630000
C      -41.81170000     -34.14280000     -71.06550000
C      -43.60460000     -33.52230000     -72.44680000
C      -42.49570000     -33.47090000     -73.31320000
S      -41.39500000     -34.72540000     -69.46490000
S      -40.96820000     -33.97820000     -72.56770000
H      -42.60630000     -33.38310000     -74.40200000
