40
Properties=species:S:1:pos:R:3 #=T CELL(abcABC):=T 1.889726e+02=T 90.00000=T Traj:=T positionsangstrom=T Step:=T 0=T Bead:=T pbc="F F F"
C      -48.26350000     -34.97680000     -72.93720000
C      -48.18640000     -33.59380000     -73.19730000
C      -48.29490000     -32.65690000     -72.11130000
C      -48.53590000     -33.14750000     -70.79810000
C      -48.49120000     -34.48960000     -70.54340000
C      -48.50940000     -35.41380000     -71.61420000
H      -48.35720000     -35.74630000     -73.75670000
H      -48.44560000     -31.61570000     -72.44990000
H      -48.35870000     -34.86950000     -69.52510000
H      -48.43610000     -36.46890000     -71.41740000
C      -48.67470000     -32.11010000     -69.68230000
H      -49.76480000     -32.05970000     -69.36730000
H      -48.47170000     -31.11660000     -70.08120000
C      -47.94720000     -33.20620000     -74.65950000
H      -47.60530000     -34.05430000     -75.19430000
H      -48.78440000     -32.61240000     -75.04630000
S      -47.49970000     -32.28530000     -68.24590000
S      -46.60820000     -31.89380000     -74.79680000
C      -45.78870000     -32.29740000     -68.95060000
H      -45.74420000     -31.57890000     -69.80140000
H      -45.12580000     -31.85980000     -68.23510000
C      -45.18910000     -32.86300000     -74.13960000
H      -44.35000000     -32.49590000     -74.65250000
H      -45.27530000     -33.83670000     -74.59740000
C      -44.97420000     -32.83960000     -72.62360000
H      -44.96490000     -31.75280000     -72.31210000
H      -45.73040000     -33.29770000     -72.01920000
C      -45.29630000     -33.72530000     -69.15680000
H      -45.84020000     -34.21010000     -70.00530000
H      -45.62440000     -34.35490000     -68.22930000
C      -43.88370000     -33.85770000     -69.43640000
C      -42.98340000     -34.30480000     -68.48070000
C      -43.27660000     -33.77010000     -70.77970000
H      -43.18840000     -34.42500000     -67.44440000
C      -41.91520000     -34.01630000     -70.74500000
C      -43.62750000     -33.32430000     -72.12090000
C      -42.53930000     -33.22030000     -72.97340000
S      -41.34940000     -34.56940000     -69.16730000
S      -41.04260000     -33.72070000     -72.24830000
H      -42.62850000     -33.08320000     -74.02300000
