40
Properties=species:S:1:pos:R:3 #=T CELL(abcABC):=T 1.889726e+02=T 90.00000=T Traj:=T positionsangstrom=T Step:=T 0=T Bead:=T pbc="F F F"
C      -41.61900000     -31.64320000     -72.40720000
C      -42.90400000     -31.09010000     -72.30600000
C      -43.85440000     -31.38560000     -73.31150000
C      -43.65240000     -32.39200000     -74.21550000
C      -42.35720000     -33.00190000     -74.26620000
C      -41.34730000     -32.57980000     -73.42780000
H      -40.76100000     -31.26280000     -71.85250000
H      -44.81960000     -30.88000000     -73.16050000
H      -42.05420000     -33.77930000     -74.96810000
H      -40.39210000     -33.04570000     -73.47160000
C      -44.71720000     -32.66750000     -75.20910000
H      -44.32850000     -32.49180000     -76.20310000
H      -45.58370000     -32.05180000     -75.06460000
C      -43.06340000     -30.07260000     -71.20440000
H      -42.08550000     -29.73570000     -70.83040000
H      -43.59770000     -29.20240000     -71.49820000
S      -45.27160000     -34.45250000     -74.92030000
S      -44.07650000     -30.47980000     -69.63680000
C      -45.98130000     -34.26090000     -73.19300000
H      -45.45000000     -33.40230000     -72.79760000
H      -47.07080000     -34.12080000     -73.29630000
C      -43.60300000     -32.27420000     -69.25480000
H      -43.65630000     -32.42300000     -68.17560000
H      -42.58040000     -32.41060000     -69.47440000
C      -44.41430000     -33.27770000     -69.94580000
H      -44.48140000     -33.06240000     -70.97880000
H      -43.66300000     -34.13420000     -69.92900000
C      -45.76580000     -35.44390000     -72.21330000
H      -44.81750000     -35.31980000     -71.78640000
H      -45.70480000     -36.39320000     -72.80670000
C      -46.75470000     -35.50520000     -71.15460000
C      -47.80640000     -36.37020000     -71.19280000
C      -46.65450000     -34.66980000     -70.01970000
H      -47.91640000     -37.17060000     -71.90760000
C      -47.78870000     -34.85290000     -69.22980000
C      -45.78550000     -33.72110000     -69.40230000
C      -46.34320000     -33.02860000     -68.34270000
S      -48.87910000     -36.05050000     -69.81310000
S      -47.81810000     -33.76920000     -67.84140000
H      -45.79630000     -32.37280000     -67.71800000
