40
Properties=species:S:1:pos:R:3 #=T CELL(abcABC):=T 1.889726e+02=T 90.00000=T Traj:=T positionsangstrom=T Step:=T 0=T Bead:=T pbc="F F F"
C      -42.39730000     -36.33960000     -70.10860000
C      -42.74610000     -35.84630000     -71.39580000
C      -43.98940000     -36.14470000     -71.97380000
C      -44.88270000     -36.94950000     -71.29290000
C      -44.49460000     -37.48570000     -70.01190000
C      -43.26710000     -37.20540000     -69.47310000
H      -41.36330000     -36.15790000     -69.74040000
H      -44.20460000     -35.63770000     -72.84320000
H      -45.27020000     -38.10100000     -69.42270000
H      -43.10210000     -37.59310000     -68.45660000
C      -46.20550000     -37.30220000     -71.87560000
H      -46.95480000     -37.35910000     -71.12030000
H      -46.23600000     -38.19580000     -72.46950000
C      -41.77940000     -34.98040000     -72.15930000
H      -41.15890000     -34.53200000     -71.33870000
H      -41.03940000     -35.50430000     -72.79220000
S      -46.81550000     -35.98380000     -73.11410000
S      -42.34480000     -33.58240000     -73.17900000
C      -47.47360000     -34.66380000     -71.86810000
H      -48.47370000     -34.81900000     -71.51820000
H      -46.74570000     -34.83140000     -71.06080000
C      -43.17750000     -32.61660000     -71.83500000
H      -42.45140000     -31.95180000     -71.32870000
H      -43.65530000     -33.34010000     -71.15200000
C      -44.28570000     -31.83060000     -72.47780000
H      -43.85220000     -31.13680000     -73.20380000
H      -44.95070000     -32.42250000     -73.19960000
C      -47.28260000     -33.19300000     -72.41270000
H      -47.99360000     -33.07660000     -73.23120000
H      -46.32540000     -33.09560000     -72.87640000
C      -47.42150000     -32.17380000     -71.30050000
C      -48.60940000     -31.89940000     -70.65630000
C      -46.38840000     -31.20270000     -71.01700000
H      -49.46650000     -32.56040000     -70.68460000
C      -46.86590000     -30.25620000     -70.08700000
C      -45.08530000     -30.91270000     -71.54450000
C      -44.54080000     -29.82210000     -70.91190000
S      -48.44780000     -30.54760000     -69.51660000
S      -45.63050000     -29.09330000     -69.62370000
H      -43.58130000     -29.35360000     -71.06060000
