40
Properties=species:S:1:pos:R:3 #=T CELL(abcABC):=T 1.889726e+02=T 90.00000=T Traj:=T positionsangstrom=T Step:=T 0=T Bead:=T pbc="F F F"
C      -42.13480000     -35.97910000     -69.89340000
C      -42.36200000     -35.51170000     -71.14810000
C      -43.57180000     -35.85900000     -71.79020000
C      -44.45310000     -36.77950000     -71.18790000
C      -44.16020000     -37.23400000     -69.87480000
C      -43.06320000     -36.74410000     -69.17390000
H      -41.25520000     -35.54040000     -69.38350000
H      -43.89460000     -35.39440000     -72.77740000
H      -44.87380000     -37.93490000     -69.47350000
H      -42.81360000     -37.05690000     -68.15690000
C      -45.67740000     -37.34620000     -71.87100000
H      -46.24180000     -37.78940000     -71.03680000
H      -45.37570000     -38.24900000     -72.47640000
C      -41.41500000     -34.55740000     -71.74210000
H      -40.78280000     -34.13900000     -70.96680000
H      -40.68910000     -35.11200000     -72.36380000
S      -46.57640000     -36.25270000     -72.98230000
S      -42.21320000     -33.44490000     -72.89840000
C      -47.46030000     -35.03750000     -71.81030000
H      -48.49570000     -35.19740000     -71.80960000
H      -46.97140000     -35.22540000     -70.82370000
C      -43.30520000     -32.52890000     -71.66180000
H      -42.77570000     -32.07790000     -70.82020000
H      -44.01500000     -33.30240000     -71.25050000
C      -44.22880000     -31.61660000     -72.35810000
H      -43.62760000     -30.75340000     -72.69140000
H      -44.69620000     -32.05470000     -73.20370000
C      -47.01880000     -33.64940000     -72.29130000
H      -47.28130000     -33.38050000     -73.33650000
H      -45.93720000     -33.67520000     -72.40190000
C      -47.42230000     -32.53160000     -71.37630000
C      -48.71460000     -32.40570000     -70.88850000
C      -46.60610000     -31.32370000     -71.11830000
H      -49.56790000     -33.01610000     -70.87970000
C      -47.31250000     -30.36790000     -70.46080000
C      -45.27500000     -30.91750000     -71.51410000
C      -45.00050000     -29.69490000     -71.05840000
S      -48.98570000     -30.79930000     -70.03840000
S      -46.21190000     -29.00330000     -70.03000000
H      -44.10490000     -29.26110000     -71.32930000
