40
Properties=species:S:1:pos:R:3 #=T CELL(abcABC):=T 1.889726e+02=T 90.00000=T Traj:=T positionsangstrom=T Step:=T 0=T Bead:=T pbc="F F F"
C      -42.25850000     -30.71410000     -72.70370000
C      -43.64720000     -30.70590000     -72.45960000
C      -44.52820000     -31.21510000     -73.45990000
C      -44.06790000     -31.89420000     -74.55860000
C      -42.68590000     -31.91130000     -74.78710000
C      -41.81580000     -31.33540000     -73.85550000
H      -41.55090000     -30.38120000     -71.92830000
H      -45.60860000     -31.01260000     -73.34560000
H      -42.31370000     -32.63100000     -75.54340000
H      -40.75950000     -31.44360000     -73.98070000
C      -45.05500000     -32.64330000     -75.34370000
H      -44.79730000     -32.63450000     -76.40880000
H      -46.06530000     -32.05600000     -75.16190000
C      -44.19820000     -29.96220000     -71.26300000
H      -43.75220000     -28.98930000     -71.11550000
H      -45.32540000     -29.75730000     -71.30180000
S      -45.19720000     -34.46470000     -74.91350000
S      -43.94440000     -30.86810000     -69.64730000
C      -46.31380000     -34.34120000     -73.38030000
H      -45.93660000     -33.38210000     -72.99910000
H      -47.37210000     -34.11870000     -73.57010000
C      -43.20210000     -32.50210000     -70.01940000
H      -42.56980000     -32.80120000     -69.11390000
H      -42.46050000     -32.37720000     -70.82350000
C      -44.31050000     -33.50400000     -70.39700000
H      -44.77970000     -33.04580000     -71.34070000
H      -43.89740000     -34.45600000     -70.66470000
C      -46.05360000     -35.53080000     -72.44370000
H      -45.01460000     -35.83120000     -72.46380000
H      -46.45090000     -36.48720000     -72.90510000
C      -46.73000000     -35.54170000     -71.06460000
C      -47.77210000     -36.44510000     -70.91120000
C      -46.47030000     -34.80530000     -69.84080000
H      -48.20380000     -37.12400000     -71.65450000
C      -47.31360000     -35.07140000     -68.81470000
C      -45.43040000     -33.86020000     -69.39330000
C      -45.63280000     -33.39410000     -68.10780000
S      -48.53350000     -36.31370000     -69.28540000
S      -46.99330000     -34.24210000     -67.23810000
H      -45.07960000     -32.65130000     -67.58870000
