40
Properties=species:S:1:pos:R:3 #=T CELL(abcABC):=T 1.889726e+02=T 90.00000=T Traj:=T positionsangstrom=T Step:=T 0=T Bead:=T pbc="F F F"
C      -43.80020000     -34.06650000     -69.16250000
C      -42.82380000     -34.25240000     -70.15670000
C      -42.91770000     -35.43280000     -70.96750000
C      -43.97840000     -36.34970000     -70.74100000
C      -44.81690000     -36.13430000     -69.64230000
C      -44.81890000     -34.98790000     -68.90370000
H      -43.72670000     -33.15320000     -68.62330000
H      -42.25220000     -35.43590000     -71.87770000
H      -45.47200000     -37.01070000     -69.37140000
H      -45.58640000     -34.88790000     -68.17790000
C      -44.29960000     -37.42560000     -71.68390000
H      -44.73210000     -38.18400000     -71.07950000
H      -43.43640000     -37.93500000     -72.20390000
C      -41.64530000     -33.30270000     -70.30360000
H      -41.67600000     -32.59280000     -69.42960000
H      -40.77310000     -33.87200000     -70.29510000
S      -45.42170000     -36.95910000     -73.02870000
S      -41.52300000     -32.24910000     -71.94200000
C      -46.69370000     -35.94980000     -72.27460000
H      -47.67810000     -36.00150000     -72.69520000
H      -46.76240000     -36.20890000     -71.19770000
C      -43.06680000     -31.21700000     -71.69210000
H      -42.67070000     -30.24600000     -71.91740000
H      -43.23300000     -31.35340000     -70.63500000
C      -44.18670000     -31.71230000     -72.54850000
H      -43.94110000     -31.24850000     -73.54180000
H      -44.15180000     -32.83080000     -72.72420000
C      -46.28510000     -34.49430000     -72.33900000
H      -46.25680000     -34.21520000     -73.39820000
H      -45.26720000     -34.47120000     -71.92390000
C      -47.11690000     -33.44200000     -71.61330000
C      -48.39320000     -33.66690000     -71.20240000
C      -46.68970000     -32.04300000     -71.52280000
H      -49.09940000     -34.49150000     -71.06180000
C      -47.75790000     -31.23180000     -71.00150000
C      -45.58420000     -31.24770000     -72.05480000
C      -45.76870000     -29.91500000     -71.81620000
S      -49.24110000     -32.11850000     -70.67560000
S      -47.30130000     -29.56400000     -70.99660000
H      -45.17270000     -29.07310000     -71.93700000
