40
Properties=species:S:1:pos:R:3 #=T CELL(abcABC):=T 1.889726e+02=T 90.00000=T Traj:=T positionsangstrom=T Step:=T 0=T Bead:=T pbc="F F F"
C      -43.48880000     -34.14700000     -69.12740000
C      -42.71530000     -34.37530000     -70.25560000
C      -43.15330000     -35.37560000     -71.15010000
C      -44.15170000     -36.29340000     -70.76470000
C      -44.77100000     -36.09020000     -69.52020000
C      -44.61670000     -34.89040000     -68.82250000
H      -43.05450000     -33.36800000     -68.45320000
H      -42.54190000     -35.57740000     -72.06170000
H      -45.66620000     -36.67550000     -69.27280000
H      -45.24840000     -34.70940000     -67.93370000
C      -44.44810000     -37.42620000     -71.58640000
H      -44.92270000     -38.25850000     -70.98060000
H      -43.54610000     -37.82930000     -72.02780000
C      -41.43450000     -33.59580000     -70.53790000
H      -41.11760000     -33.05640000     -69.62860000
H      -40.50360000     -34.10450000     -70.90660000
S      -45.67710000     -37.16740000     -73.05280000
S      -41.54130000     -32.23720000     -71.84080000
C      -46.82830000     -35.80700000     -72.38670000
H      -47.59730000     -35.92590000     -73.12170000
H      -47.18990000     -36.17280000     -71.40620000
C      -43.22680000     -31.42750000     -71.53250000
H      -43.14600000     -30.35070000     -71.46190000
H      -43.61490000     -31.77610000     -70.55290000
C      -44.30450000     -31.68320000     -72.61370000
H      -44.00140000     -31.29720000     -73.56930000
H      -44.39830000     -32.72050000     -72.86760000
C      -46.19620000     -34.45670000     -72.35390000
H      -45.82810000     -34.19580000     -73.35980000
H      -45.25770000     -34.42460000     -71.77160000
C      -47.09310000     -33.35510000     -71.83980000
C      -48.30410000     -33.55960000     -71.25120000
C      -46.71680000     -31.92830000     -71.75700000
H      -48.81170000     -34.49860000     -71.19190000
C      -47.69860000     -31.16170000     -71.01170000
C      -45.58310000     -31.11040000     -72.19060000
C      -45.73510000     -29.81080000     -71.76930000
S      -49.04960000     -32.14680000     -70.46060000
S      -47.29210000     -29.45890000     -70.95650000
H      -45.23710000     -28.96450000     -72.02610000
