40
Properties=species:S:1:pos:R:3 #=T CELL(abcABC):=T 1.889726e+02=T 90.00000=T Traj:=T positionsangstrom=T Step:=T 0=T Bead:=T pbc="F F F"
C      -43.12560000     -34.32030000     -69.17290000
C      -42.48200000     -34.63620000     -70.36390000
C      -43.03590000     -35.67220000     -71.10810000
C      -44.23250000     -36.27320000     -70.71080000
C      -44.92300000     -35.86620000     -69.57490000
C      -44.30830000     -34.90890000     -68.74050000
H      -42.84980000     -33.41910000     -68.59000000
H      -42.55510000     -35.94730000     -72.04040000
H      -45.81670000     -36.36790000     -69.27350000
H      -44.72920000     -34.52370000     -67.77250000
C      -44.81560000     -37.41320000     -71.49940000
H      -45.39440000     -38.04760000     -70.83630000
H      -44.00650000     -37.97350000     -71.83700000
C      -41.27760000     -33.71690000     -70.82780000
H      -40.73320000     -33.40160000     -69.93940000
H      -40.50050000     -34.27770000     -71.38560000
S      -45.82270000     -37.07840000     -73.03260000
S      -41.71310000     -32.30890000     -71.90110000
C      -46.87960000     -35.72580000     -72.45110000
H      -47.85750000     -35.81010000     -73.01050000
H      -47.12090000     -35.81930000     -71.43130000
C      -43.34230000     -31.71150000     -71.38300000
H      -43.28850000     -30.79910000     -70.72820000
H      -43.75280000     -32.48060000     -70.77030000
C      -44.22080000     -31.46480000     -72.65010000
H      -43.77810000     -30.64270000     -73.26150000
H      -44.36490000     -32.40080000     -73.20590000
C      -46.29050000     -34.32940000     -72.65000000
H      -46.32280000     -34.06770000     -73.68390000
H      -45.28340000     -34.47580000     -72.35330000
C      -47.01890000     -33.28370000     -71.75540000
C      -48.18560000     -33.52690000     -71.07190000
C      -46.72320000     -31.87960000     -71.73270000
H      -48.56100000     -34.47560000     -70.92460000
C      -47.60000000     -31.14560000     -70.96840000
C      -45.61410000     -31.04410000     -72.16540000
C      -45.74070000     -29.71950000     -71.75900000
S      -48.95530000     -32.10510000     -70.42810000
S      -47.30210000     -29.46750000     -70.89610000
H      -45.10010000     -28.86300000     -71.86810000
