40
Properties=species:S:1:pos:R:3 #=T CELL(abcABC):=T 1.889726e+02=T 90.00000=T Traj:=T positionsangstrom=T Step:=T 0=T Bead:=T pbc="F F F"
C      -42.59220000     -30.39380000     -72.85170000
C      -43.86080000     -30.64530000     -72.37250000
C      -44.75690000     -31.36570000     -73.19550000
C      -44.37010000     -31.96540000     -74.40620000
C      -43.00080000     -31.72750000     -74.83750000
C      -42.15870000     -30.97780000     -74.05580000
H      -41.85790000     -29.89610000     -72.26290000
H      -45.76340000     -31.61600000     -72.85900000
H      -42.62780000     -32.10920000     -75.77800000
H      -41.11130000     -30.98670000     -74.24060000
C      -45.31830000     -32.69460000     -75.30350000
H      -44.84420000     -32.68720000     -76.34040000
H      -46.31220000     -32.19400000     -75.45770000
C      -44.50040000     -30.09660000     -71.14110000
H      -44.37530000     -28.93660000     -71.08210000
H      -45.59250000     -30.35630000     -71.24070000
S      -45.75940000     -34.51430000     -74.91360000
S      -43.61980000     -30.70240000     -69.60600000
C      -46.50270000     -34.41230000     -73.22570000
H      -46.01050000     -33.58950000     -72.73400000
H      -47.62450000     -34.28330000     -73.23290000
C      -43.10170000     -32.42890000     -70.07240000
H      -42.54230000     -32.92070000     -69.23680000
H      -42.44550000     -32.30100000     -70.99070000
C      -44.15620000     -33.44100000     -70.59370000
H      -44.61130000     -33.21920000     -71.58280000
H      -43.51510000     -34.38080000     -70.83740000
C      -46.19940000     -35.73210000     -72.50830000
H      -45.16350000     -35.93490000     -72.56960000
H      -46.71720000     -36.48520000     -72.98020000
C      -46.63860000     -35.72350000     -71.06770000
C      -47.72450000     -36.53000000     -70.71560000
C      -46.18330000     -34.93570000     -69.95550000
H      -48.21480000     -37.15920000     -71.38050000
C      -46.86600000     -35.25920000     -68.79300000
C      -45.26750000     -33.84100000     -69.67490000
C      -45.36460000     -33.45390000     -68.35020000
S      -48.24410000     -36.24320000     -69.06280000
S      -46.57130000     -34.32050000     -67.36110000
H      -44.85240000     -32.62640000     -67.80070000
