40
Properties=species:S:1:pos:R:3 #=T CELL(abcABC):=T 1.889726e+02=T 90.00000=T Traj:=T positionsangstrom=T Step:=T 0=T Bead:=T pbc="F F F"
C      -43.70150000     -33.84250000     -68.88390000
C      -42.75290000     -33.93920000     -69.90070000
C      -42.85290000     -34.98980000     -70.86080000
C      -43.86590000     -35.97080000     -70.64590000
C      -44.75650000     -35.94460000     -69.56110000
C      -44.69480000     -34.85190000     -68.65830000
H      -43.60170000     -32.91930000     -68.26960000
H      -42.06130000     -35.03760000     -71.64570000
H      -45.53090000     -36.63460000     -69.47280000
H      -45.42790000     -34.76370000     -67.89980000
C      -43.89380000     -37.23380000     -71.53840000
H      -44.48430000     -38.02610000     -70.95940000
H      -42.92720000     -37.65330000     -71.86360000
C      -41.70290000     -32.93740000     -70.08130000
H      -41.55030000     -32.21660000     -69.30280000
H      -40.70540000     -33.38540000     -70.04330000
S      -44.85390000     -36.87170000     -73.06940000
S      -41.57950000     -32.01050000     -71.68630000
C      -46.37810000     -36.03230000     -72.45570000
H      -47.28160000     -36.40430000     -73.01520000
H      -46.56820000     -36.16250000     -71.39510000
C      -43.16240000     -31.02280000     -71.74120000
H      -42.91380000     -30.05870000     -72.10270000
H      -43.34400000     -30.78720000     -70.67960000
C      -44.37950000     -31.63720000     -72.43700000
H      -44.41540000     -31.28860000     -73.51250000
H      -44.12220000     -32.65910000     -72.55860000
C      -46.20510000     -34.53520000     -72.82040000
H      -46.24120000     -34.43580000     -73.88890000
H      -45.17120000     -34.28940000     -72.54970000
C      -47.18640000     -33.56390000     -72.19090000
C      -48.46650000     -33.96000000     -71.73550000
C      -46.88020000     -32.16670000     -71.79560000
H      -48.95780000     -34.99420000     -71.79070000
C      -48.03660000     -31.58700000     -71.23040000
C      -45.71950000     -31.30770000     -71.87060000
C      -45.98670000     -30.09920000     -71.31990000
S      -49.41170000     -32.63310000     -71.07380000
S      -47.68720000     -29.91300000     -70.78000000
H      -45.40400000     -29.28360000     -70.99910000
