40
Properties=species:S:1:pos:R:3 #=T CELL(abcABC):=T 1.889726e+02=T 90.00000=T Traj:=T positionsangstrom=T Step:=T 0=T Bead:=T pbc="F F F"
C      -43.54320000     -33.85900000     -68.67890000
C      -42.70840000     -33.94940000     -69.80560000
C      -42.85130000     -34.98640000     -70.74900000
C      -43.80050000     -35.96140000     -70.55040000
C      -44.69120000     -35.89900000     -69.42850000
C      -44.50360000     -34.88950000     -68.50710000
H      -43.34850000     -33.02420000     -68.09260000
H      -42.18410000     -34.96760000     -71.68090000
H      -45.39030000     -36.75930000     -69.24860000
H      -45.08240000     -34.77350000     -67.61410000
C      -43.98770000     -37.05060000     -71.57160000
H      -44.24160000     -37.92310000     -71.04000000
H      -42.95950000     -37.19700000     -71.86930000
C      -41.71830000     -32.83210000     -69.96730000
H      -42.00800000     -32.01750000     -69.31380000
H      -40.64970000     -33.20880000     -69.66350000
S      -44.93380000     -36.92720000     -73.22110000
S      -41.67770000     -32.07480000     -71.72130000
C      -46.46580000     -36.01080000     -72.75020000
H      -47.29250000     -36.44900000     -73.28630000
H      -46.59900000     -36.27520000     -71.71360000
C      -43.21540000     -31.11540000     -71.75040000
H      -42.99620000     -30.26510000     -72.39770000
H      -43.48500000     -30.84420000     -70.71540000
C      -44.36910000     -31.88370000     -72.32880000
H      -44.40430000     -31.92060000     -73.42170000
H      -44.40410000     -32.95500000     -72.09680000
C      -46.29780000     -34.50740000     -72.88250000
H      -46.36810000     -34.22290000     -73.92460000
H      -45.28270000     -34.24130000     -72.57940000
C      -47.27860000     -33.55400000     -72.12620000
C      -48.60550000     -33.81360000     -71.79960000
C      -46.91330000     -32.23030000     -71.75860000
H      -48.91270000     -34.86780000     -71.88920000
C      -47.91920000     -31.57290000     -71.11300000
C      -45.70020000     -31.41260000     -71.88420000
C      -45.92720000     -30.11240000     -71.54520000
S      -49.40290000     -32.49150000     -71.02390000
S      -47.55880000     -29.92090000     -70.83830000
H      -45.29850000     -29.31050000     -71.51480000
