40
Properties=species:S:1:pos:R:3 #=T CELL(abcABC):=T 1.889726e+02=T 90.00000=T Traj:=T positionsangstrom=T Step:=T 0=T Bead:=T pbc="F F F"
C      -43.74220000     -33.51170000     -69.43580000
C      -42.68290000     -33.97020000     -70.23910000
C      -42.83030000     -35.21960000     -70.86010000
C      -43.91620000     -36.10060000     -70.61260000
C      -44.92500000     -35.63230000     -69.75980000
C      -44.83370000     -34.36380000     -69.23150000
H      -43.82990000     -32.49930000     -69.05250000
H      -42.12700000     -35.63180000     -71.52390000
H      -45.80320000     -36.31950000     -69.46290000
H      -45.73960000     -34.08250000     -68.66350000
C      -44.03680000     -37.36550000     -71.40210000
H      -44.45680000     -38.10960000     -70.73220000
H      -43.04510000     -37.66420000     -71.61790000
C      -41.48890000     -33.04360000     -70.43030000
H      -41.39670000     -32.52740000     -69.42360000
H      -40.50870000     -33.52950000     -70.55970000
S      -44.89790000     -37.13840000     -73.00720000
S      -41.59460000     -31.65560000     -71.80620000
C      -46.26320000     -35.97210000     -72.61810000
H      -47.06650000     -36.18770000     -73.32150000
H      -46.57560000     -36.29920000     -71.60140000
C      -43.21070000     -30.83040000     -71.55890000
H      -43.37130000     -29.81420000     -71.98870000
H      -43.38270000     -30.72870000     -70.51840000
C      -44.40410000     -31.60000000     -72.23630000
H      -44.55590000     -31.31550000     -73.32710000
H      -44.21280000     -32.71160000     -72.31900000
C      -45.89950000     -34.46570000     -72.61400000
H      -45.64250000     -34.10780000     -73.62090000
H      -45.03690000     -34.36890000     -72.06510000
C      -46.99350000     -33.62830000     -72.06220000
C      -48.30710000     -34.02110000     -71.89850000
C      -46.80950000     -32.28310000     -71.50840000
H      -48.84850000     -34.92520000     -72.04710000
C      -47.97880000     -31.67200000     -71.04030000
C      -45.74640000     -31.34620000     -71.55920000
C      -46.08840000     -30.14360000     -71.07250000
S      -49.35680000     -32.76960000     -71.11120000
S      -47.84760000     -30.06260000     -70.49480000
H      -45.41490000     -29.27000000     -71.24370000
