40
Properties=species:S:1:pos:R:3 #=T CELL(abcABC):=T 1.889726e+02=T 90.00000=T Traj:=T positionsangstrom=T Step:=T 0=T Bead:=T pbc="F F F"
C      -48.34950000     -31.94720000     -72.55670000
C      -47.27180000     -31.03620000     -72.53400000
C      -46.69780000     -30.66590000     -71.33050000
C      -47.27560000     -30.99210000     -70.07330000
C      -48.35760000     -31.87720000     -70.09360000
C      -48.77420000     -32.43720000     -71.33280000
H      -48.82470000     -32.26470000     -73.44270000
H      -45.90810000     -29.87470000     -71.39710000
H      -48.82840000     -32.17100000     -69.14780000
H      -49.45480000     -33.23380000     -71.11220000
C      -46.73080000     -30.44860000     -68.75900000
H      -47.13760000     -30.99610000     -67.93160000
H      -47.04800000     -29.45430000     -68.63140000
C      -46.80290000     -30.62230000     -73.86690000
H      -47.60100000     -30.65930000     -74.48750000
H      -46.44190000     -29.59450000     -73.85760000
S      -44.89030000     -30.57800000     -68.70180000
S      -45.25930000     -31.47850000     -74.50360000
C      -44.74320000     -32.39000000     -68.67070000
H      -44.02310000     -32.56760000     -67.87430000
H      -45.64750000     -32.79180000     -68.22660000
C      -45.12290000     -32.93850000     -73.50300000
H      -45.67360000     -33.71190000     -74.09030000
H      -45.74850000     -32.84760000     -72.63270000
C      -43.70850000     -33.46510000     -73.22150000
H      -43.16210000     -33.56420000     -74.13290000
H      -43.14770000     -32.78590000     -72.56550000
C      -44.19360000     -32.98770000     -69.94260000
H      -43.23110000     -32.56940000     -70.13390000
H      -44.78810000     -32.56650000     -70.81130000
C      -44.24340000     -34.48170000     -70.03000000
C      -44.32590000     -35.38230000     -68.95210000
C      -44.03660000     -35.23800000     -71.25930000
H      -44.59830000     -35.18690000     -67.92660000
C      -43.98430000     -36.62250000     -71.04910000
C      -43.87700000     -34.85250000     -72.64420000
C      -43.97890000     -35.89320000     -73.49900000
S      -44.22140000     -37.08290000     -69.40960000
S      -43.95290000     -37.43240000     -72.61690000
H      -43.90790000     -35.70190000     -74.58900000
