40
Properties=species:S:1:pos:R:3 #=T CELL(abcABC):=T 1.889726e+02=T 90.00000=T Traj:=T positionsangstrom=T Step:=T 0=T Bead:=T pbc="F F F"
C      -44.92020000     -30.11110000     -68.81830000
C      -45.70290000     -30.51700000     -69.96430000
C      -46.34200000     -31.76330000     -70.00040000
C      -46.28230000     -32.64140000     -68.87920000
C      -45.62400000     -32.22360000     -67.70610000
C      -44.92290000     -30.99790000     -67.75780000
H      -44.25200000     -29.23300000     -68.83970000
H      -46.87820000     -32.03550000     -70.87070000
H      -45.81660000     -32.66890000     -66.77060000
H      -44.38550000     -30.68580000     -66.85210000
C      -46.98550000     -33.95590000     -69.02680000
H      -47.15460000     -34.10460000     -70.13550000
H      -48.07190000     -33.83630000     -68.69190000
C      -45.84140000     -29.57280000     -71.14140000
H      -46.78270000     -29.71080000     -71.69610000
H      -45.96740000     -28.61360000     -70.77300000
S      -46.19580000     -35.36660000     -68.17390000
S      -44.45000000     -29.37120000     -72.19080000
C      -44.48540000     -35.13280000     -68.77420000
H      -43.95530000     -34.56480000     -67.95360000
H      -44.07980000     -36.18430000     -68.77730000
C      -44.46560000     -30.82490000     -73.28900000
H      -43.95750000     -30.59800000     -74.28050000
H      -45.54830000     -31.06590000     -73.66250000
C      -43.85100000     -32.19910000     -72.73170000
H      -42.77800000     -32.29730000     -72.90380000
H      -43.98980000     -32.21180000     -71.64700000
C      -44.23980000     -34.64440000     -70.20890000
H      -43.11090000     -34.62700000     -70.29820000
H      -44.59640000     -33.64960000     -70.46170000
C      -44.86290000     -35.33060000     -71.38540000
C      -45.42620000     -36.61390000     -71.39140000
C      -44.97760000     -34.64570000     -72.66430000
H      -45.70060000     -37.19670000     -70.47970000
C      -45.50540000     -35.51050000     -73.61480000
C      -44.59460000     -33.40670000     -73.31680000
C      -44.72340000     -33.43350000     -74.70570000
S      -45.95370000     -37.11180000     -72.99010000
S      -45.42660000     -34.89610000     -75.24330000
H      -44.29530000     -32.70110000     -75.44110000
