40
Properties=species:S:1:pos:R:3 #=T CELL(abcABC):=T 1.889726e+02=T 90.00000=T Traj:=T positionsangstrom=T Step:=T 0=T Bead:=T pbc="F F F"
C      -45.10560000     -30.03050000     -68.44980000
C      -45.54910000     -30.20470000     -69.69070000
C      -46.24770000     -31.40390000     -69.95540000
C      -46.47000000     -32.38940000     -68.95840000
C      -45.87620000     -32.22660000     -67.67540000
C      -45.17290000     -31.03930000     -67.48800000
H      -44.63420000     -29.03070000     -68.18960000
H      -46.82750000     -31.60740000     -70.95010000
H      -45.80990000     -33.07690000     -66.99140000
H      -44.58040000     -31.00670000     -66.52290000
C      -47.02720000     -33.69990000     -69.41760000
H      -47.05320000     -33.79320000     -70.52780000
H      -48.10590000     -33.80300000     -69.12000000
C      -45.36820000     -29.15600000     -70.75160000
H      -46.36480000     -29.13190000     -71.25020000
H      -45.06350000     -28.17020000     -70.22630000
S      -46.35100000     -35.29260000     -68.73020000
S      -44.06120000     -29.47500000     -72.03040000
C      -44.53510000     -35.31960000     -68.98160000
H      -44.10240000     -34.70230000     -68.21610000
H      -44.28730000     -36.38450000     -68.78820000
C      -44.63790000     -30.92650000     -73.06180000
H      -44.31120000     -30.76500000     -74.04210000
H      -45.70760000     -30.87000000     -73.07380000
C      -44.26910000     -32.27540000     -72.46340000
H      -43.14090000     -32.36700000     -72.33100000
H      -44.81680000     -32.32460000     -71.47100000
C      -43.93180000     -34.80020000     -70.26900000
H      -42.83220000     -35.03280000     -70.30940000
H      -43.98300000     -33.75440000     -70.39470000
C      -44.58600000     -35.53030000     -71.50940000
C      -44.93920000     -36.83450000     -71.52580000
C      -44.90490000     -34.80700000     -72.74200000
H      -45.08570000     -37.52370000     -70.68960000
C      -45.54540000     -35.65290000     -73.66120000
C      -44.66740000     -33.45190000     -73.29970000
C      -45.18870000     -33.38240000     -74.52550000
S      -45.75850000     -37.24450000     -73.07510000
S      -45.73590000     -34.88860000     -75.19330000
H      -45.20110000     -32.40390000     -75.05210000
