40
Properties=species:S:1:pos:R:3 #=T CELL(abcABC):=T 1.889726e+02=T 90.00000=T Traj:=T positionsangstrom=T Step:=T 0=T Bead:=T pbc="F F F"
C      -44.88430000     -30.16390000     -68.60510000
C      -45.54240000     -30.24850000     -69.81360000
C      -46.31470000     -31.39800000     -70.09420000
C      -46.38770000     -32.46900000     -69.12930000
C      -45.74990000     -32.33960000     -67.90590000
C      -44.89400000     -31.18590000     -67.65230000
H      -44.19960000     -29.27640000     -68.42100000
H      -46.86450000     -31.61310000     -71.09770000
H      -45.82890000     -33.13750000     -67.13600000
H      -44.26580000     -31.21930000     -66.75900000
C      -47.06070000     -33.80320000     -69.51490000
H      -47.01640000     -33.90210000     -70.57510000
H      -48.09360000     -33.76980000     -69.31920000
C      -45.50150000     -29.15610000     -70.88060000
H      -46.42520000     -29.08100000     -71.36140000
H      -45.29980000     -28.19440000     -70.43840000
S      -46.32660000     -35.27910000     -68.67320000
S      -44.15230000     -29.43000000     -72.03180000
C      -44.46370000     -35.07180000     -68.80040000
H      -44.10460000     -34.34910000     -68.05050000
H      -44.02460000     -36.01240000     -68.38350000
C      -44.72750000     -30.99740000     -72.90200000
H      -44.48100000     -30.89720000     -73.97760000
H      -45.90480000     -30.93320000     -72.86380000
C      -44.20200000     -32.29620000     -72.42290000
H      -43.13240000     -32.24360000     -72.50400000
H      -44.28660000     -32.45280000     -71.40700000
C      -43.94280000     -34.85160000     -70.21910000
H      -42.97860000     -35.35430000     -70.17450000
H      -43.64830000     -33.84810000     -70.24030000
C      -44.72800000     -35.47110000     -71.39920000
C      -45.16180000     -36.76760000     -71.41700000
C      -44.82030000     -34.77690000     -72.67150000
H      -45.42300000     -37.46310000     -70.60530000
C      -45.45990000     -35.60680000     -73.60070000
C      -44.65560000     -33.44320000     -73.26780000
C      -45.17390000     -33.33720000     -74.51350000
S      -45.81140000     -37.23280000     -73.01730000
S      -45.77320000     -34.84880000     -75.15220000
H      -45.12800000     -32.48400000     -75.17540000
