40
Properties=species:S:1:pos:R:3 #=T CELL(abcABC):=T 1.889726e+02=T 90.00000=T Traj:=T positionsangstrom=T Step:=T 0=T Bead:=T pbc="F F F"
C      -43.66640000     -33.36890000     -69.18970000
C      -42.73930000     -33.76470000     -70.20090000
C      -42.83780000     -35.00820000     -70.81530000
C      -44.03000000     -35.77690000     -70.66330000
C      -44.85910000     -35.41780000     -69.57250000
C      -44.66550000     -34.27180000     -68.78550000
H      -43.56010000     -32.44770000     -68.63890000
H      -42.02780000     -35.37020000     -71.47970000
H      -45.69120000     -36.00260000     -69.43430000
H      -45.20210000     -34.10490000     -67.88760000
C      -44.26440000     -37.01770000     -71.49470000
H      -45.03170000     -37.65410000     -70.99300000
H      -43.23590000     -37.50960000     -71.59850000
C      -41.46510000     -32.98800000     -70.41380000
H      -41.29350000     -32.46460000     -69.49320000
H      -40.61610000     -33.56120000     -70.66000000
S      -44.76060000     -36.86660000     -73.31010000
S      -41.58420000     -31.73320000     -71.72580000
C      -46.41490000     -35.98370000     -73.22900000
H      -46.85540000     -36.15560000     -74.22390000
H      -47.09970000     -36.46910000     -72.47210000
C      -43.27190000     -31.07110000     -71.41920000
H      -43.21390000     -29.95080000     -71.63710000
H      -43.57830000     -31.08560000     -70.43460000
C      -44.41250000     -31.63160000     -72.26920000
H      -44.37750000     -31.30220000     -73.31370000
H      -44.20790000     -32.74800000     -72.42900000
C      -46.19890000     -34.47630000     -73.00660000
H      -45.93910000     -34.08540000     -73.98450000
H      -45.27250000     -34.39010000     -72.45570000
C      -47.23090000     -33.64780000     -72.36240000
C      -48.50870000     -34.08330000     -72.01140000
C      -46.88630000     -32.37920000     -71.73010000
H      -48.86070000     -34.99530000     -72.44660000
C      -47.93200000     -31.87340000     -70.94530000
C      -45.78650000     -31.44380000     -71.63170000
C      -46.00570000     -30.38480000     -70.80830000
S      -49.26920000     -32.92090000     -71.01060000
S      -47.69120000     -30.32910000     -70.18520000
H      -45.27160000     -29.60380000     -70.59770000
