40
Properties=species:S:1:pos:R:3 #=T CELL(abcABC):=T 1.889726e+02=T 90.00000=T Traj:=T positionsangstrom=T Step:=T 0=T Bead:=T pbc="F F F"
C      -41.23660000     -31.78420000     -70.69980000
C      -41.90520000     -32.41930000     -71.73510000
C      -43.03600000     -31.72990000     -72.20660000
C      -43.32920000     -30.42670000     -71.86240000
C      -42.65740000     -29.84560000     -70.72780000
C      -41.69260000     -30.58440000     -70.14440000
H      -40.36490000     -32.29240000     -70.29250000
H      -43.61770000     -32.17640000     -72.98810000
H      -42.91190000     -28.86780000     -70.45230000
H      -41.04300000     -30.24640000     -69.28980000
C      -44.45450000     -29.60460000     -72.50370000
H      -44.55670000     -29.91140000     -73.52860000
H      -44.25250000     -28.50880000     -72.43420000
C      -41.45460000     -33.72890000     -72.26710000
H      -41.26730000     -33.57280000     -73.31970000
H      -40.44180000     -34.03640000     -71.84690000
S      -46.06290000     -29.80020000     -71.42490000
S      -42.68230000     -35.08330000     -72.02240000
C      -46.61060000     -31.59430000     -71.60970000
H      -47.41890000     -31.48880000     -72.37160000
H      -45.90070000     -32.19690000     -72.08170000
C      -43.19170000     -34.93430000     -70.34230000
H      -42.57550000     -34.39790000     -69.64810000
H      -43.34610000     -35.95980000     -69.91420000
C      -44.62520000     -34.33390000     -70.25420000
H      -44.89780000     -34.32620000     -69.24440000
H      -44.61020000     -33.26830000     -70.49110000
C      -47.16670000     -32.14720000     -70.29860000
H      -47.84770000     -31.45580000     -69.82760000
H      -46.28670000     -32.24430000     -69.65080000
C      -47.89660000     -33.45210000     -70.54620000
C      -49.24500000     -33.57890000     -70.77550000
C      -47.17150000     -34.71070000     -70.88460000
H      -49.98400000     -32.85550000     -70.57100000
C      -48.04880000     -35.70720000     -71.32590000
C      -45.73480000     -35.13540000     -70.87280000
C      -45.64860000     -36.41590000     -71.38670000
S      -49.74000000     -35.24080000     -71.24670000
S      -47.25720000     -37.17970000     -71.72440000
H      -44.81090000     -37.00160000     -71.54880000
