40
Properties=species:S:1:pos:R:3 #=T CELL(abcABC):=T 1.889726e+02=T 90.00000=T Traj:=T positionsangstrom=T Step:=T 0=T Bead:=T pbc="F F F"
C      -48.36890000     -31.62390000     -72.55880000
C      -47.21780000     -30.90400000     -72.58160000
C      -46.58470000     -30.49070000     -71.37010000
C      -47.05880000     -30.92600000     -70.11700000
C      -48.26110000     -31.68930000     -70.15640000
C      -48.93910000     -31.92220000     -71.33220000
H      -48.99080000     -32.03960000     -73.32910000
H      -45.77210000     -29.80680000     -71.44400000
H      -48.65630000     -31.96980000     -69.19520000
H      -49.97910000     -32.32320000     -71.21340000
C      -46.51350000     -30.55900000     -68.75640000
H      -47.03160000     -31.20790000     -68.03910000
H      -46.86450000     -29.56430000     -68.47640000
C      -46.64230000     -30.50930000     -73.97270000
H      -47.23590000     -30.99600000     -74.81270000
H      -46.56050000     -29.48420000     -74.13710000
S      -44.68000000     -30.67360000     -68.52640000
S      -44.97290000     -31.21080000     -74.18180000
C      -44.42530000     -32.52430000     -68.66090000
H      -43.52560000     -32.52220000     -68.03150000
H      -45.21070000     -33.03250000     -68.11680000
C      -45.22920000     -32.98000000     -73.97320000
H      -45.53650000     -33.45890000     -74.93110000
H      -46.04120000     -33.01620000     -73.25150000
C      -44.05450000     -33.68830000     -73.36120000
H      -43.27080000     -33.72020000     -74.19010000
H      -43.56090000     -33.13440000     -72.55550000
C      -44.21510000     -33.01750000     -70.09910000
H      -43.21460000     -32.67470000     -70.48870000
H      -44.93790000     -32.60150000     -70.80750000
C      -44.26320000     -34.51080000     -70.15770000
C      -44.21700000     -35.31330000     -69.03750000
C      -44.20240000     -35.33680000     -71.36730000
H      -44.11050000     -34.85340000     -68.04360000
C      -44.20460000     -36.71190000     -71.03610000
C      -44.24460000     -35.08740000     -72.79240000
C      -44.31810000     -36.19490000     -73.52640000
S      -44.26060000     -37.09860000     -69.35740000
S      -44.23660000     -37.69280000     -72.50460000
H      -44.41520000     -36.26580000     -74.63950000
