40
Properties=species:S:1:pos:R:3 #=T CELL(abcABC):=T 1.889726e+02=T 90.00000=T Traj:=T positionsangstrom=T Step:=T 0=T Bead:=T pbc="F F F"
C      -48.44570000     -31.82940000     -72.57640000
C      -47.28450000     -31.01150000     -72.57030000
C      -46.68950000     -30.55510000     -71.38810000
C      -47.19330000     -30.97200000     -70.12410000
C      -48.28130000     -31.84130000     -70.16290000
C      -48.92860000     -32.24210000     -71.36590000
H      -48.83450000     -32.11610000     -73.52010000
H      -45.79250000     -29.95740000     -71.37220000
H      -48.75870000     -32.24360000     -69.27150000
H      -49.87790000     -32.79590000     -71.21830000
C      -46.65370000     -30.41080000     -68.80840000
H      -47.12850000     -30.76160000     -67.85150000
H      -46.75410000     -29.30740000     -68.90680000
C      -46.71040000     -30.44950000     -73.91270000
H      -47.54290000     -30.57560000     -74.72280000
H      -46.38580000     -29.37410000     -73.83050000
S      -44.80810000     -30.65730000     -68.55570000
S      -45.06840000     -31.27030000     -74.42710000
C      -44.42290000     -32.45600000     -68.52130000
H      -43.49310000     -32.57690000     -67.98500000
H      -45.22790000     -33.09660000     -68.05180000
C      -45.24700000     -33.04680000     -73.87350000
H      -45.54390000     -33.71440000     -74.70910000
H      -45.96230000     -33.08040000     -73.07580000
C      -43.93220000     -33.48850000     -73.35280000
H      -43.10910000     -33.43690000     -74.14090000
H      -43.66490000     -32.83450000     -72.59140000
C      -44.23840000     -33.01110000     -69.96490000
H      -43.37250000     -32.49850000     -70.46450000
H      -45.15820000     -32.71510000     -70.41900000
C      -44.20120000     -34.51360000     -70.07930000
C      -44.13820000     -35.37610000     -68.99930000
C      -44.04810000     -35.26000000     -71.31870000
H      -44.28210000     -35.12620000     -67.93560000
C      -44.15760000     -36.62520000     -71.00380000
C      -44.03700000     -34.96630000     -72.73110000
C      -43.83830000     -36.12590000     -73.40310000
S      -44.25820000     -37.08400000     -69.36600000
S      -44.21080000     -37.60080000     -72.51850000
H      -43.91130000     -36.19870000     -74.53320000
