40
Properties=species:S:1:pos:R:3 #=T CELL(abcABC):=T 1.889726e+02=T 90.00000=T Traj:=T positionsangstrom=T Step:=T 0=T Bead:=T pbc="F F F"
C      -47.31210000     -30.78100000     -71.56630000
C      -46.02840000     -30.44640000     -71.92120000
C      -45.07020000     -30.41160000     -70.90710000
C      -45.38600000     -30.64690000     -69.56970000
C      -46.67930000     -30.94890000     -69.27540000
C      -47.65710000     -31.13750000     -70.27160000
H      -48.12750000     -30.65110000     -72.28210000
H      -44.02570000     -30.25700000     -71.23500000
H      -46.91010000     -31.03190000     -68.23360000
H      -48.62410000     -31.46830000     -69.94060000
C      -44.36850000     -30.41530000     -68.46140000
H      -44.82960000     -30.30690000     -67.53140000
H      -43.83200000     -29.48300000     -68.65730000
C      -45.77890000     -30.04100000     -73.31360000
H      -46.68970000     -30.08170000     -73.90190000
H      -45.36150000     -29.05020000     -73.41280000
S      -42.99330000     -31.74570000     -68.49870000
S      -44.48280000     -31.15760000     -74.05850000
C      -43.84930000     -33.43690000     -68.67020000
H      -43.18510000     -34.08830000     -68.14680000
H      -44.89220000     -33.48940000     -68.22240000
C      -45.21720000     -32.84830000     -73.82000000
H      -45.63330000     -33.22340000     -74.73250000
H      -45.95940000     -32.79970000     -72.99600000
C      -44.10720000     -33.89210000     -73.47880000
H      -43.58090000     -34.15730000     -74.38070000
H      -43.31750000     -33.55150000     -72.82670000
C      -43.99530000     -33.85380000     -70.15090000
H      -43.00740000     -34.22820000     -70.43640000
H      -44.32020000     -32.98710000     -70.78290000
C      -45.04990000     -34.94820000     -70.36180000
C      -45.63780000     -35.72140000     -69.41070000
C      -45.30030000     -35.48280000     -71.70880000
H      -45.48710000     -35.72400000     -68.27260000
C      -46.22870000     -36.52380000     -71.69840000
C      -44.79680000     -35.14820000     -73.01250000
C      -45.30250000     -35.90510000     -74.01990000
S      -46.57580000     -37.11030000     -70.05200000
S      -46.41860000     -37.20090000     -73.31970000
H      -45.21030000     -35.64410000     -75.08810000
