40
Properties=species:S:1:pos:R:3 #=T CELL(abcABC):=T 1.889726e+02=T 90.00000=T Traj:=T positionsangstrom=T Step:=T 0=T Bead:=T pbc="F F F"
C      -47.44510000     -30.80640000     -71.52350000
C      -46.28150000     -30.17900000     -71.92020000
C      -45.28580000     -29.95780000     -71.00550000
C      -45.39160000     -30.36870000     -69.68670000
C      -46.57140000     -30.96040000     -69.30250000
C      -47.62910000     -31.14050000     -70.16430000
H      -48.24870000     -30.99470000     -72.27350000
H      -44.38300000     -29.50770000     -71.45400000
H      -46.54540000     -31.26860000     -68.23060000
H      -48.52790000     -31.69580000     -69.92000000
C      -44.29590000     -30.25280000     -68.72550000
H      -44.69370000     -30.08360000     -67.76870000
H      -43.65110000     -29.44130000     -68.92210000
C      -45.95710000     -30.01910000     -73.43620000
H      -46.79460000     -30.16050000     -74.08840000
H      -45.65410000     -29.05160000     -73.57270000
S      -43.08190000     -31.67650000     -68.72870000
S      -44.49240000     -31.14310000     -73.93270000
C      -44.19000000     -33.21950000     -68.77830000
H      -43.57850000     -33.92260000     -68.17120000
H      -45.08180000     -33.00130000     -68.20890000
C      -45.20050000     -32.84090000     -73.45070000
H      -45.96570000     -33.16510000     -74.16110000
H      -45.75350000     -32.67600000     -72.54650000
C      -44.12470000     -33.87110000     -73.36630000
H      -43.71860000     -33.93320000     -74.42610000
H      -43.37000000     -33.58440000     -72.62430000
C      -44.43510000     -33.67840000     -70.16470000
H      -43.39890000     -33.69900000     -70.59920000
H      -44.89440000     -32.88350000     -70.77630000
C      -45.15320000     -34.97000000     -70.37050000
C      -45.79930000     -35.71800000     -69.39750000
C      -45.12920000     -35.57040000     -71.67080000
H      -45.85650000     -35.56240000     -68.36520000
C      -45.92540000     -36.72970000     -71.66820000
C      -44.66400000     -35.24080000     -73.01290000
C      -45.16490000     -36.18110000     -73.89910000
S      -46.46360000     -37.23210000     -70.08660000
S      -46.04280000     -37.53310000     -73.20940000
H      -44.81360000     -36.34910000     -74.94780000
