40
Properties=species:S:1:pos:R:3 #=T CELL(abcABC):=T 1.889726e+02=T 90.00000=T Traj:=T positionsangstrom=T Step:=T 0=T Bead:=T pbc="F F F"
C      -47.58570000     -30.83930000     -71.61120000
C      -46.26520000     -30.39000000     -71.94660000
C      -45.40130000     -30.13530000     -70.89550000
C      -45.80010000     -30.38020000     -69.58000000
C      -47.09930000     -30.74050000     -69.25860000
C      -47.96640000     -31.03740000     -70.30610000
H      -48.27760000     -31.10890000     -72.45140000
H      -44.34180000     -30.01550000     -71.24320000
H      -47.30870000     -30.99460000     -68.22170000
H      -48.84090000     -31.42420000     -69.93280000
C      -44.80620000     -30.14340000     -68.48290000
H      -45.23500000     -30.21430000     -67.50770000
H      -44.37520000     -29.11390000     -68.63820000
C      -45.84540000     -30.16380000     -73.31390000
H      -46.82980000     -29.73500000     -73.91210000
H      -45.18130000     -29.28190000     -73.28290000
S      -43.43400000     -31.36020000     -68.58180000
S      -44.80780000     -31.32220000     -74.23530000
C      -44.24020000     -33.03740000     -68.91470000
H      -43.53610000     -33.73240000     -68.42560000
H      -45.13050000     -32.98910000     -68.27510000
C      -45.41130000     -33.03440000     -73.74360000
H      -46.18680000     -33.36140000     -74.50340000
H      -46.02090000     -33.07900000     -72.84710000
C      -44.16640000     -34.00740000     -73.67260000
H      -43.76660000     -34.17840000     -74.63810000
H      -43.46400000     -33.58560000     -72.96250000
C      -44.58530000     -33.38580000     -70.43150000
H      -43.64760000     -33.20280000     -70.96960000
H      -45.27960000     -32.74410000     -70.88400000
C      -45.04640000     -34.77410000     -70.50470000
C      -45.39760000     -35.52330000     -69.43160000
C      -44.99390000     -35.53790000     -71.74380000
H      -45.61240000     -35.17030000     -68.37730000
C      -45.42790000     -36.80930000     -71.51560000
C      -44.69430000     -35.28580000     -73.12220000
C      -44.83250000     -36.39840000     -73.92220000
S      -45.77920000     -37.19300000     -69.85330000
S      -45.62650000     -37.75850000     -72.93390000
H      -44.69630000     -36.45560000     -75.03860000
