40
Properties=species:S:1:pos:R:3 #=T CELL(abcABC):=T 1.889726e+02=T 90.00000=T Traj:=T positionsangstrom=T Step:=T 0=T Bead:=T pbc="F F F"
C      -41.22150000     -31.83570000     -70.61690000
C      -41.94020000     -32.50180000     -71.64910000
C      -42.92420000     -31.69330000     -72.26540000
C      -43.27080000     -30.38640000     -71.87220000
C      -42.50210000     -29.77700000     -70.90240000
C      -41.49360000     -30.52720000     -70.21260000
H      -40.50240000     -32.35020000     -70.01040000
H      -43.36310000     -32.14440000     -73.10690000
H      -42.88610000     -28.77620000     -70.60030000
H      -40.83360000     -30.07970000     -69.52400000
C      -44.53370000     -29.66980000     -72.46330000
H      -44.74940000     -30.13230000     -73.44620000
H      -44.35740000     -28.62270000     -72.70450000
C      -41.58700000     -33.82480000     -72.27630000
H      -41.52080000     -33.62720000     -73.32230000
H      -40.59490000     -34.27480000     -72.01030000
S      -46.09090000     -29.72870000     -71.46610000
S      -42.69320000     -35.23920000     -72.03660000
C      -46.36290000     -31.60110000     -71.64680000
H      -46.87200000     -31.71470000     -72.65010000
H      -45.40600000     -32.14870000     -71.67250000
C      -43.33240000     -35.05980000     -70.24200000
H      -42.54050000     -34.52210000     -69.83000000
H      -43.34700000     -36.03540000     -69.75640000
C      -44.68300000     -34.34910000     -70.21500000
H      -44.90490000     -33.96090000     -69.14700000
H      -44.70470000     -33.53540000     -70.93420000
C      -47.19830000     -32.08640000     -70.40870000
H      -47.96870000     -31.34030000     -70.21100000
H      -46.51660000     -32.10100000     -69.60650000
C      -47.82490000     -33.43980000     -70.56360000
C      -49.13320000     -33.46410000     -70.96860000
C      -47.17690000     -34.68130000     -70.75170000
H      -49.84570000     -32.68690000     -70.93070000
C      -48.06940000     -35.67960000     -71.26940000
C      -45.85360000     -35.19340000     -70.70600000
C      -45.77310000     -36.53380000     -71.05150000
S      -49.75330000     -35.03950000     -71.42320000
S      -47.29570000     -37.21780000     -71.59420000
H      -45.01330000     -37.22240000     -71.11410000
