40
Properties=species:S:1:pos:R:3 #=T CELL(abcABC):=T 1.889726e+02=T 90.00000=T Traj:=T positionsangstrom=T Step:=T 0=T Bead:=T pbc="F F F"
C      -47.68710000     -30.83410000     -71.71520000
C      -46.45530000     -30.34000000     -72.05800000
C      -45.52890000     -30.03600000     -71.05690000
C      -45.96330000     -30.31040000     -69.73900000
C      -47.25080000     -30.82680000     -69.42180000
C      -48.14060000     -31.09840000     -70.41360000
H      -48.28810000     -31.13900000     -72.58680000
H      -44.54010000     -29.66120000     -71.21000000
H      -47.52050000     -31.00300000     -68.44200000
H      -49.13610000     -31.46100000     -70.22680000
C      -45.00330000     -30.21740000     -68.59180000
H      -45.50230000     -30.45670000     -67.62320000
H      -44.68090000     -29.16140000     -68.47800000
C      -46.08570000     -30.09230000     -73.46780000
H      -47.04240000     -30.14900000     -74.08870000
H      -45.55210000     -29.19850000     -73.59650000
S      -43.42730000     -31.19150000     -68.51780000
S      -44.85680000     -31.36500000     -74.18020000
C      -44.03430000     -32.97610000     -68.68100000
H      -43.27200000     -33.64730000     -68.29290000
H      -44.91380000     -33.11260000     -68.06610000
C      -45.49490000     -32.92900000     -73.64750000
H      -46.29430000     -33.24930000     -74.33240000
H      -45.84830000     -32.88770000     -72.66700000
C      -44.30000000     -33.93960000     -73.71680000
H      -43.78100000     -34.06820000     -74.69230000
H      -43.41190000     -33.49540000     -73.08440000
C      -44.38880000     -33.42250000     -70.15280000
H      -43.59640000     -33.28840000     -70.89790000
H      -45.24600000     -32.73530000     -70.46370000
C      -44.82600000     -34.86640000     -70.37840000
C      -45.15830000     -35.69530000     -69.36210000
C      -44.91480000     -35.60010000     -71.68910000
H      -45.15380000     -35.60810000     -68.27930000
C      -45.41630000     -36.89840000     -71.54760000
C      -44.68000000     -35.28400000     -73.10080000
C      -44.89290000     -36.39220000     -73.88860000
S      -45.75890000     -37.24550000     -69.83900000
S      -45.33540000     -37.76870000     -72.98490000
H      -44.69290000     -36.45810000     -74.95190000
