40
Properties=species:S:1:pos:R:3 #=T CELL(abcABC):=T 1.889726e+02=T 90.00000=T Traj:=T positionsangstrom=T Step:=T 0=T Bead:=T pbc="F F F"
C      -46.86470000     -30.62490000     -71.65250000
C      -45.59670000     -30.05090000     -71.63130000
C      -44.90610000     -29.97160000     -70.43150000
C      -45.32040000     -30.64610000     -69.27720000
C      -46.56660000     -31.31200000     -69.35850000
C      -47.29810000     -31.29640000     -70.54460000
H      -47.46440000     -30.75260000     -72.60500000
H      -43.90140000     -29.44280000     -70.43840000
H      -46.86330000     -31.92870000     -68.52310000
H      -48.27270000     -31.79340000     -70.55720000
C      -44.41160000     -30.83820000     -68.14460000
H      -44.71070000     -31.37080000     -67.22200000
H      -43.89920000     -29.84100000     -67.95560000
C      -45.05520000     -29.62510000     -72.99780000
H      -45.87220000     -29.24210000     -73.68530000
H      -44.26690000     -28.88660000     -73.04300000
S      -42.90830000     -31.88140000     -68.74140000
S      -44.16540000     -31.11840000     -73.77670000
C      -43.70460000     -33.55000000     -69.05320000
H      -43.04470000     -34.33300000     -68.71250000
H      -44.61760000     -33.51700000     -68.47270000
C      -45.27280000     -32.61860000     -73.39740000
H      -46.21410000     -32.50240000     -73.92080000
H      -45.62670000     -32.54380000     -72.31230000
C      -44.59550000     -33.87420000     -73.76190000
H      -44.45620000     -33.95360000     -74.90460000
H      -43.60050000     -33.87920000     -73.36080000
C      -44.23140000     -33.78050000     -70.50300000
H      -43.32680000     -33.90360000     -71.05470000
H      -44.61620000     -32.80830000     -70.87850000
C      -44.97620000     -35.08970000     -70.60050000
C      -45.47440000     -35.82940000     -69.52060000
C      -45.39020000     -35.58680000     -71.88520000
H      -45.33110000     -35.76950000     -68.45620000
C      -46.21550000     -36.70950000     -71.77640000
C      -45.37170000     -35.07760000     -73.26170000
C      -46.21610000     -35.84830000     -74.04100000
S      -46.40430000     -37.27780000     -70.09730000
S      -47.11760000     -37.03780000     -73.22650000
H      -46.47780000     -35.63170000     -75.10950000
