40
Properties=species:S:1:pos:R:3 #=T CELL(abcABC):=T 1.889726e+02=T 90.00000=T Traj:=T positionsangstrom=T Step:=T 0=T Bead:=T pbc="F F F"
C      -46.57520000     -29.42230000     -70.64700000
C      -45.44060000     -29.89980000     -71.32070000
C      -44.46600000     -30.60940000     -70.52150000
C      -44.66830000     -30.82690000     -69.12590000
C      -45.84100000     -30.42740000     -68.53630000
C      -46.74620000     -29.64230000     -69.26770000
H      -47.27670000     -28.76720000     -71.21350000
H      -43.59220000     -31.17970000     -71.04290000
H      -45.95860000     -30.52430000     -67.46570000
H      -47.61890000     -29.23720000     -68.64880000
C      -43.63870000     -31.48110000     -68.27050000
H      -43.97950000     -31.69930000     -67.25050000
H      -42.95500000     -30.66240000     -68.14330000
C      -45.25690000     -29.55510000     -72.80000000
H      -46.20740000     -29.36220000     -73.15320000
H      -44.61000000     -28.63010000     -72.98300000
S      -42.64740000     -32.86020000     -68.87010000
S      -44.38610000     -30.91110000     -73.67300000
C      -43.92780000     -34.11680000     -69.03250000
H      -43.55650000     -34.96480000     -68.49890000
H      -44.98640000     -33.99050000     -68.60280000
C      -45.43360000     -32.30520000     -73.14250000
H      -46.47550000     -32.22120000     -73.60960000
H      -45.39840000     -32.42690000     -72.08580000
C      -44.78740000     -33.65370000     -73.65170000
H      -44.73710000     -33.63860000     -74.74660000
H      -43.73040000     -33.70070000     -73.33210000
C      -44.12710000     -34.46390000     -70.51050000
H      -43.15580000     -34.81800000     -70.91290000
H      -44.43780000     -33.61480000     -71.02860000
C      -45.20920000     -35.43010000     -70.72330000
C      -45.76060000     -36.34810000     -69.82130000
C      -45.75310000     -35.52700000     -72.07430000
H      -45.58950000     -36.39520000     -68.79370000
C      -46.56210000     -36.60350000     -72.17080000
C      -45.56370000     -34.90170000     -73.36110000
C      -46.31580000     -35.47310000     -74.37140000
S      -46.97960000     -37.38620000     -70.54620000
S      -47.17040000     -36.80820000     -73.82220000
H      -46.20830000     -35.15340000     -75.34300000
