40
Properties=species:S:1:pos:R:3 #=T CELL(abcABC):=T 1.889726e+02=T 90.00000=T Traj:=T positionsangstrom=T Step:=T 0=T Bead:=T pbc="F F F"
C      -46.94990000     -30.16470000     -71.25070000
C      -45.60980000     -30.06140000     -71.56070000
C      -44.65800000     -30.31010000     -70.59710000
C      -44.97620000     -30.77720000     -69.30130000
C      -46.31860000     -30.89160000     -68.98630000
C      -47.32750000     -30.51780000     -69.92680000
H      -47.70070000     -29.96940000     -71.98550000
H      -43.65270000     -30.24830000     -70.86890000
H      -46.65540000     -31.03490000     -67.96330000
H      -48.36210000     -30.62990000     -69.67440000
C      -43.91550000     -30.87190000     -68.21590000
H      -44.31530000     -30.80770000     -67.12860000
H      -43.22730000     -29.95250000     -68.27490000
C      -45.09070000     -29.66860000     -72.88910000
H      -45.90310000     -29.51460000     -73.58030000
H      -44.42280000     -28.74250000     -72.83430000
S      -42.87420000     -32.41600000     -68.48630000
S      -44.07250000     -31.03920000     -73.69270000
C      -44.07290000     -33.69610000     -68.97340000
H      -43.90690000     -34.63950000     -68.42000000
H      -45.03380000     -33.42350000     -68.58280000
C      -45.38270000     -32.40350000     -73.64580000
H      -46.05890000     -32.31580000     -74.55260000
H      -45.86720000     -32.39630000     -72.68500000
C      -44.71190000     -33.78250000     -73.89150000
H      -44.45780000     -33.89100000     -74.92640000
H      -43.74090000     -33.79030000     -73.29100000
C      -44.08120000     -34.06370000     -70.43040000
H      -43.07370000     -34.41140000     -70.68020000
H      -44.34290000     -33.19880000     -70.97090000
C      -44.92890000     -35.27300000     -70.75800000
C      -45.34690000     -36.09860000     -69.78390000
C      -45.54750000     -35.53210000     -72.02740000
H      -45.12300000     -36.08650000     -68.71470000
C      -46.48770000     -36.60520000     -71.89740000
C      -45.56580000     -34.96910000     -73.35920000
C      -46.39780000     -35.64190000     -74.19570000
S      -46.41630000     -37.33240000     -70.34500000
S      -47.27350000     -36.94870000     -73.39810000
H      -46.58900000     -35.58730000     -75.29330000
