40
Properties=species:S:1:pos:R:3 #=T CELL(abcABC):=T 1.889726e+02=T 90.00000=T Traj:=T positionsangstrom=T Step:=T 0=T Bead:=T pbc="F F F"
C      -42.24860000     -30.89120000     -69.52150000
C      -43.56490000     -30.56130000     -69.81230000
C      -44.66080000     -31.27930000     -69.22850000
C      -44.38110000     -32.27560000     -68.28850000
C      -43.04030000     -32.54580000     -67.91660000
C      -41.99070000     -31.84940000     -68.48740000
H      -41.37990000     -30.30370000     -69.93170000
H      -45.70180000     -31.13020000     -69.50980000
H      -42.86310000     -33.38550000     -67.22770000
H      -40.94800000     -32.01740000     -68.18430000
C      -45.53560000     -33.01310000     -67.65600000
H      -46.39160000     -32.46260000     -67.30230000
H      -45.21520000     -33.56610000     -66.72160000
C      -43.87580000     -29.45950000     -70.85740000
H      -44.69770000     -28.89490000     -70.56650000
H      -43.02360000     -28.76540000     -70.91210000
S      -46.33130000     -34.23050000     -68.80700000
S      -43.95290000     -30.01820000     -72.56660000
C      -44.98090000     -35.44410000     -69.29880000
H      -44.24260000     -35.50070000     -68.56420000
H      -45.48490000     -36.41200000     -69.29070000
C      -45.58480000     -30.87670000     -72.79040000
H      -45.67720000     -30.98720000     -73.87310000
H      -46.33670000     -30.15040000     -72.57790000
C      -45.77640000     -32.21840000     -72.02340000
H      -44.78470000     -32.58110000     -71.73550000
H      -46.37570000     -31.96320000     -71.07410000
C      -44.33620000     -35.13430000     -70.69030000
H      -43.43890000     -35.77250000     -70.76150000
H      -43.94200000     -34.08190000     -70.93780000
C      -45.31310000     -35.60960000     -71.84110000
C      -45.49900000     -36.94050000     -72.05820000
C      -46.12350000     -34.76810000     -72.68870000
H      -45.13170000     -37.78170000     -71.45270000
C      -46.92250000     -35.56620000     -73.51160000
C      -46.40610000     -33.35190000     -72.84460000
C      -47.18560000     -33.13660000     -73.92660000
S      -46.57390000     -37.24950000     -73.40380000
S      -47.78800000     -34.66300000     -74.72800000
H      -47.72320000     -32.18250000     -74.09770000
