40
Properties=species:S:1:pos:R:3 #=T CELL(abcABC):=T 1.889726e+02=T 90.00000=T Traj:=T positionsangstrom=T Step:=T 0=T Bead:=T pbc="F F F"
C      -42.58050000     -31.27010000     -70.03370000
C      -43.83510000     -30.81350000     -69.65610000
C      -44.61490000     -31.65260000     -68.81410000
C      -44.11320000     -32.84070000     -68.28460000
C      -42.79640000     -33.23340000     -68.55580000
C      -42.06500000     -32.47720000     -69.41270000
H      -41.85690000     -30.66920000     -70.70350000
H      -45.65820000     -31.42810000     -68.64040000
H      -42.40900000     -34.17850000     -68.13590000
H      -41.03920000     -32.72800000     -69.73610000
C      -45.05580000     -33.61360000     -67.43010000
H      -45.16800000     -33.11570000     -66.46090000
H      -44.76890000     -34.64730000     -67.19660000
C      -44.46510000     -29.52410000     -70.05530000
H      -45.50970000     -29.43230000     -69.75430000
H      -43.86670000     -28.68300000     -69.78010000
S      -46.81580000     -33.70960000     -68.16260000
S      -44.33770000     -29.50990000     -71.91450000
C      -46.78420000     -35.18850000     -69.36820000
H      -46.83510000     -36.18080000     -68.88210000
H      -47.75900000     -35.07460000     -69.88590000
C      -45.45330000     -30.80300000     -72.65890000
H      -45.31050000     -30.63240000     -73.75750000
H      -46.47930000     -30.68780000     -72.43610000
C      -45.15170000     -32.22090000     -72.16840000
H      -44.02060000     -32.36860000     -72.10620000
H      -45.70550000     -32.46800000     -71.24430000
C      -45.49710000     -35.08880000     -70.23500000
H      -44.69230000     -35.66590000     -69.68370000
H      -45.03700000     -34.01800000     -70.22180000
C      -45.71090000     -35.65520000     -71.66880000
C      -46.05890000     -36.89920000     -71.99020000
C      -45.80650000     -34.73890000     -72.83340000
H      -45.97220000     -37.71940000     -71.24610000
C      -46.24540000     -35.48500000     -73.91830000
C      -45.66000000     -33.33080000     -73.13880000
C      -46.13880000     -33.13020000     -74.43670000
S      -46.54930000     -37.15680000     -73.61000000
S      -46.56390000     -34.52320000     -75.35950000
H      -46.10940000     -32.10710000     -74.94240000
