40
Properties=species:S:1:pos:R:3 #=T CELL(abcABC):=T 1.889726e+02=T 90.00000=T Traj:=T positionsangstrom=T Step:=T 0=T Bead:=T pbc="F F F"
C      -42.57430000     -31.15400000     -69.68590000
C      -43.94060000     -30.77880000     -69.62360000
C      -44.74580000     -31.62880000     -68.82920000
C      -44.27570000     -32.87370000     -68.30700000
C      -43.01130000     -33.31900000     -68.62960000
C      -42.15390000     -32.41020000     -69.25410000
H      -41.89290000     -30.36580000     -70.13680000
H      -45.71340000     -31.26610000     -68.60840000
H      -42.65720000     -34.24590000     -68.23070000
H      -41.11170000     -32.74090000     -69.32130000
C      -45.12520000     -33.84160000     -67.46070000
H      -45.01560000     -33.70680000     -66.38450000
H      -44.65770000     -34.80890000     -67.67880000
C      -44.49020000     -29.58180000     -70.29610000
H      -45.56120000     -29.39490000     -69.96330000
H      -44.01530000     -28.64560000     -69.90940000
S      -46.84990000     -33.94590000     -67.89490000
S      -44.24680000     -29.56070000     -72.09450000
C      -46.98700000     -34.85530000     -69.48800000
H      -47.53530000     -35.80090000     -69.39250000
H      -47.53290000     -34.22150000     -70.16670000
C      -45.49710000     -30.81910000     -72.56350000
H      -45.62890000     -30.69130000     -73.60120000
H      -46.41750000     -30.43100000     -72.07950000
C      -45.07140000     -32.23040000     -72.20450000
H      -43.96110000     -32.17880000     -72.30060000
H      -45.32130000     -32.28170000     -71.17730000
C      -45.64690000     -35.15790000     -70.21740000
H      -45.22260000     -35.97690000     -69.67630000
H      -44.94110000     -34.36910000     -70.22280000
C      -45.91430000     -35.58390000     -71.66590000
C      -46.16640000     -36.87910000     -71.94730000
C      -46.00130000     -34.69640000     -72.81320000
H      -46.11330000     -37.77130000     -71.21670000
C      -46.28410000     -35.41720000     -73.99490000
C      -45.59910000     -33.32450000     -73.06610000
C      -45.74960000     -33.00850000     -74.44990000
S      -46.39870000     -37.15550000     -73.73730000
S      -46.30460000     -34.41710000     -75.37770000
H      -45.43650000     -32.02080000     -74.83920000
