40
Properties=species:S:1:pos:R:3 #=T CELL(abcABC):=T 1.889726e+02=T 90.00000=T Traj:=T positionsangstrom=T Step:=T 0=T Bead:=T pbc="F F F"
C      -48.46400000     -34.22240000     -72.46720000
C      -48.70320000     -32.98140000     -71.91990000
C      -48.11540000     -31.86590000     -72.48200000
C      -47.31250000     -31.91570000     -73.59910000
C      -47.19490000     -33.18080000     -74.16370000
C      -47.65010000     -34.27860000     -73.51550000
H      -48.85430000     -35.14280000     -72.01350000
H      -48.26610000     -30.88120000     -71.94380000
H      -46.55180000     -33.24000000     -74.99140000
H      -47.31120000     -35.20340000     -73.93550000
C      -46.57410000     -30.68170000     -74.22310000
H      -47.26120000     -29.82170000     -74.25960000
H      -46.14680000     -30.89120000     -75.21810000
C      -49.51380000     -32.92590000     -70.59420000
H      -49.80100000     -31.88570000     -70.36310000
H      -50.31780000     -33.69380000     -70.62090000
S      -45.05690000     -30.18450000     -73.23910000
S      -48.52970000     -33.26780000     -69.03020000
C      -44.41390000     -31.78770000     -72.53940000
H      -45.19620000     -32.55800000     -72.38010000
H      -43.65310000     -32.24270000     -73.20540000
C      -47.15740000     -34.54530000     -69.47550000
H      -47.57940000     -35.42860000     -70.03710000
H      -46.83470000     -34.94310000     -68.49600000
C      -46.06200000     -33.92860000     -70.31980000
H      -46.42710000     -33.86360000     -71.34040000
H      -45.85980000     -32.90720000     -69.99570000
C      -43.73670000     -31.58760000     -71.23260000
H      -44.48540000     -31.32780000     -70.50170000
H      -43.05280000     -30.69540000     -71.26680000
C      -42.87210000     -32.76030000     -70.86460000
C      -41.54030000     -32.78180000     -71.11450000
C      -43.40520000     -34.11350000     -70.50930000
H      -40.93870000     -32.01920000     -71.48970000
C      -42.35520000     -34.98930000     -70.27390000
C      -44.75980000     -34.67070000     -70.15290000
C      -44.63230000     -36.00580000     -69.77450000
S      -40.80540000     -34.36040000     -70.71730000
S      -42.91090000     -36.56280000     -69.76420000
H      -45.42210000     -36.74650000     -69.51920000
