40
Properties=species:S:1:pos:R:3 #=T CELL(abcABC):=T 1.889726e+02=T 90.00000=T Traj:=T positionsangstrom=T Step:=T 0=T Bead:=T pbc="F F F"
C      -42.95720000     -31.34250000     -69.09250000
C      -44.21480000     -30.72000000     -69.14590000
C      -45.25900000     -31.27130000     -68.38980000
C      -45.02230000     -32.49980000     -67.72230000
C      -43.79310000     -33.12030000     -67.72340000
C      -42.73180000     -32.49290000     -68.34410000
H      -42.16750000     -30.83890000     -69.62270000
H      -46.18780000     -30.75790000     -68.43810000
H      -43.51100000     -34.07910000     -67.25060000
H      -41.70950000     -32.85760000     -68.27840000
C      -46.17400000     -33.22770000     -67.02410000
H      -46.89980000     -32.51430000     -66.70290000
H      -45.79870000     -33.91710000     -66.23500000
C      -44.39740000     -29.55070000     -70.03260000
H      -45.34310000     -29.04120000     -69.77600000
H      -43.63940000     -28.80930000     -69.75860000
S      -47.15120000     -34.33640000     -68.20910000
S      -44.17290000     -29.82410000     -71.87550000
C      -46.55180000     -34.04050000     -69.96580000
H      -47.49060000     -34.03100000     -70.54950000
H      -46.01020000     -33.07170000     -70.09990000
C      -45.12900000     -31.41920000     -72.06810000
H      -45.94950000     -31.48810000     -72.79750000
H      -45.68150000     -31.57750000     -71.11210000
C      -44.17630000     -32.68580000     -72.24580000
H      -43.15670000     -32.36630000     -72.59340000
H      -44.11210000     -33.19270000     -71.34880000
C      -45.77590000     -35.24050000     -70.52210000
H      -46.06090000     -36.07520000     -69.94100000
H      -44.68160000     -35.01620000     -70.45830000
C      -46.15300000     -35.50590000     -72.01040000
C      -46.81080000     -36.62610000     -72.45920000
C      -45.62190000     -34.70430000     -73.14280000
H      -47.01290000     -37.43490000     -71.77730000
C      -45.99590000     -35.29670000     -74.35590000
C      -44.72800000     -33.55730000     -73.33350000
C      -44.38990000     -33.49430000     -74.68890000
S      -46.98600000     -36.69100000     -74.18670000
S      -45.22950000     -34.55260000     -75.76600000
H      -43.88210000     -32.62140000     -75.05610000
