40
Properties=species:S:1:pos:R:3 #=T CELL(abcABC):=T 1.889726e+02=T 90.00000=T Traj:=T positionsangstrom=T Step:=T 0=T Bead:=T pbc="F F F"
C      -48.61360000     -34.21290000     -72.58220000
C      -48.77850000     -33.02640000     -71.81840000
C      -48.16400000     -31.87740000     -72.30850000
C      -47.38410000     -31.80330000     -73.50610000
C      -47.18140000     -33.09070000     -74.12260000
C      -47.84750000     -34.26660000     -73.77550000
H      -49.15510000     -35.15770000     -72.39480000
H      -48.25510000     -30.85610000     -71.78750000
H      -46.65740000     -33.12770000     -75.06130000
H      -47.80150000     -35.15760000     -74.41960000
C      -46.74160000     -30.62060000     -74.05580000
H      -47.39370000     -29.76050000     -73.99890000
H      -46.54280000     -30.72290000     -75.13950000
C      -49.45500000     -32.98500000     -70.53090000
H      -49.91100000     -32.02840000     -70.30430000
H      -50.27930000     -33.64740000     -70.60020000
S      -45.19420000     -30.16470000     -73.22760000
S      -48.25330000     -33.22620000     -69.10390000
C      -44.27720000     -31.73800000     -72.67940000
H      -44.97350000     -32.54400000     -72.81820000
H      -43.48940000     -31.89840000     -73.38810000
C      -47.17730000     -34.61300000     -69.67860000
H      -47.79250000     -35.36000000     -70.19100000
H      -46.76540000     -35.05100000     -68.80150000
C      -46.02160000     -34.10280000     -70.56180000
H      -46.23560000     -34.12080000     -71.59280000
H      -45.89230000     -33.05930000     -70.35050000
C      -43.76680000     -31.56870000     -71.20670000
H      -44.59240000     -31.34820000     -70.54660000
H      -43.07410000     -30.63090000     -71.12890000
C      -42.92280000     -32.84420000     -70.83010000
C      -41.54780000     -32.81020000     -70.96430000
C      -43.38070000     -34.10560000     -70.49250000
H      -40.89140000     -32.01800000     -71.09050000
C      -42.33490000     -34.99290000     -70.26700000
C      -44.65580000     -34.73470000     -70.34580000
C      -44.56140000     -36.01260000     -69.83190000
S      -40.76310000     -34.32790000     -70.51480000
S      -42.92290000     -36.59880000     -69.72290000
H      -45.48390000     -36.66860000     -69.72960000
