40
Properties=species:S:1:pos:R:3 #=T CELL(abcABC):=T 1.889726e+02=T 90.00000=T Traj:=T positionsangstrom=T Step:=T 0=T Bead:=T pbc="F F F"
C      -48.74910000     -34.26450000     -73.11300000
C      -48.48410000     -33.30510000     -72.09240000
C      -47.82340000     -32.14750000     -72.43460000
C      -47.46590000     -31.86460000     -73.76720000
C      -47.78660000     -32.75290000     -74.78320000
C      -48.48950000     -33.91150000     -74.44000000
H      -49.29620000     -35.16150000     -72.87050000
H      -47.56460000     -31.41010000     -71.67160000
H      -47.55590000     -32.39910000     -75.79050000
H      -48.75090000     -34.58660000     -75.17820000
C      -46.59130000     -30.65520000     -74.08260000
H      -47.19840000     -29.93390000     -74.43980000
H      -45.95840000     -30.89590000     -74.93560000
C      -48.97350000     -33.64060000     -70.64780000
H      -50.00860000     -33.19040000     -70.40770000
H      -49.00930000     -34.75790000     -70.58700000
S      -45.52060000     -30.04380000     -72.68920000
S      -48.00000000     -32.88470000     -69.24270000
C      -44.37750000     -31.40970000     -72.53670000
H      -44.81310000     -32.24240000     -73.09090000
H      -43.43920000     -31.04480000     -72.91780000
C      -46.40940000     -33.77410000     -69.15510000
H      -46.43260000     -34.55030000     -68.37070000
H      -45.58090000     -33.04600000     -69.09200000
C      -46.11840000     -34.56000000     -70.46390000
H      -46.80350000     -35.40780000     -70.48550000
H      -46.18350000     -33.96560000     -71.36480000
C      -44.16340000     -31.83580000     -71.05350000
H      -45.07580000     -32.15830000     -70.55570000
H      -43.67080000     -30.94740000     -70.56740000
C      -43.19830000     -32.95000000     -70.84390000
C      -41.83910000     -32.70690000     -70.83930000
C      -43.48150000     -34.31110000     -70.44160000
H      -41.26400000     -31.86560000     -71.17500000
C      -42.34000000     -35.06990000     -70.21740000
C      -44.67090000     -35.17000000     -70.26190000
C      -44.34290000     -36.37230000     -69.79420000
S      -40.88680000     -34.16100000     -70.38730000
S      -42.58970000     -36.69510000     -69.73090000
H      -45.05260000     -37.10770000     -69.55590000
