40
Properties=species:S:1:pos:R:3 #=T CELL(abcABC):=T 1.889726e+02=T 90.00000=T Traj:=T positionsangstrom=T Step:=T 0=T Bead:=T pbc="F F F"
C      -41.06710000     -32.16140000     -70.82630000
C      -41.74900000     -32.76810000     -71.92280000
C      -42.73190000     -32.00320000     -72.54660000
C      -43.10620000     -30.70700000     -72.12520000
C      -42.45270000     -30.21460000     -70.95250000
C      -41.51970000     -30.98780000     -70.27550000
H      -40.36940000     -32.86360000     -70.35110000
H      -43.33690000     -32.36180000     -73.39880000
H      -42.76910000     -29.38670000     -70.40960000
H      -40.97280000     -30.55580000     -69.42320000
C      -44.10760000     -29.81870000     -72.70800000
H      -44.35240000     -30.00680000     -73.72160000
H      -43.67240000     -28.85750000     -72.82100000
C      -41.60820000     -34.24390000     -72.24000000
H      -41.40090000     -34.50880000     -73.22860000
H      -40.73630000     -34.72480000     -71.70480000
S      -45.59540000     -29.68130000     -71.58810000
S      -43.19410000     -35.18080000     -71.79280000
C      -46.54650000     -31.19580000     -72.00890000
H      -47.33090000     -31.04620000     -72.72690000
H      -45.89980000     -31.87190000     -72.46210000
C      -43.46130000     -34.81720000     -69.97160000
H      -42.71770000     -34.16680000     -69.52650000
H      -43.27030000     -35.77220000     -69.37050000
C      -44.81690000     -34.16660000     -69.75000000
H      -45.00330000     -34.27800000     -68.64460000
H      -44.89190000     -33.12290000     -70.11400000
C      -47.08630000     -31.87470000     -70.70970000
H      -47.81020000     -31.16400000     -70.25820000
H      -46.14820000     -31.92530000     -70.13080000
C      -47.83570000     -33.21670000     -70.98930000
C      -49.10060000     -33.23500000     -71.50680000
C      -47.32790000     -34.56480000     -70.81280000
H      -49.72770000     -32.34930000     -71.55700000
C      -48.17100000     -35.56800000     -71.17310000
C      -45.98080000     -35.04260000     -70.33860000
C      -46.00420000     -36.36820000     -70.18650000
S      -49.64160000     -34.91350000     -71.87740000
S      -47.49230000     -37.18420000     -70.92620000
H      -45.11130000     -37.01180000     -69.93470000
