40
Properties=species:S:1:pos:R:3 #=T CELL(abcABC):=T 1.889726e+02=T 90.00000=T Traj:=T positionsangstrom=T Step:=T 0=T Bead:=T pbc="F F F"
C      -46.16070000     -29.74660000     -70.53940000
C      -44.89020000     -29.89220000     -71.17720000
C      -43.78800000     -30.47440000     -70.49570000
C      -44.04240000     -30.94470000     -69.16670000
C      -45.20230000     -30.62520000     -68.50650000
C      -46.28210000     -30.01060000     -69.22230000
H      -46.98410000     -29.52330000     -71.09840000
H      -42.78770000     -30.70110000     -70.81750000
H      -45.31810000     -30.80250000     -67.48160000
H      -47.20060000     -29.80630000     -68.75590000
C      -42.94400000     -31.66710000     -68.37670000
H      -43.32890000     -31.92990000     -67.40870000
H      -42.05260000     -31.07390000     -68.29430000
C      -44.77930000     -29.38270000     -72.63900000
H      -45.73670000     -28.92230000     -72.87600000
H      -43.98410000     -28.67310000     -72.73320000
S      -42.18180000     -33.19610000     -69.22140000
S      -44.52300000     -30.80020000     -73.76420000
C      -43.43430000     -34.53800000     -69.42070000
H      -42.99460000     -35.45120000     -69.30090000
H      -44.19550000     -34.57110000     -68.68230000
C      -45.73530000     -32.09950000     -73.27190000
H      -46.69990000     -31.80290000     -73.67260000
H      -45.86130000     -32.04090000     -72.21880000
C      -45.38870000     -33.50690000     -73.66140000
H      -45.53610000     -33.52040000     -74.76050000
H      -44.37490000     -33.82600000     -73.49720000
C      -44.06290000     -34.53780000     -70.75770000
H      -43.38910000     -34.73190000     -71.56110000
H      -44.46250000     -33.54120000     -70.91530000
C      -45.18580000     -35.59800000     -70.93990000
C      -45.49450000     -36.62550000     -70.10320000
C      -46.08620000     -35.48240000     -72.01970000
H      -44.86050000     -36.92010000     -69.32610000
C      -47.13190000     -36.40080000     -71.90690000
C      -46.35510000     -34.55560000     -73.08660000
C      -47.53010000     -34.79790000     -73.77750000
S      -46.82440000     -37.63450000     -70.80370000
S      -48.33500000     -36.22350000     -73.18900000
H      -47.87310000     -34.33000000     -74.66400000
