40
Properties=species:S:1:pos:R:3 #=T CELL(abcABC):=T 1.889726e+02=T 90.00000=T Traj:=T positionsangstrom=T Step:=T 0=T Bead:=T pbc="F F F"
C      -45.40030000     -29.62990000     -70.26680000
C      -44.58140000     -30.07510000     -71.29050000
C      -43.45690000     -30.74580000     -70.98760000
C      -43.03340000     -30.97890000     -69.69370000
C      -43.86110000     -30.42090000     -68.60050000
C      -44.99860000     -29.70710000     -68.91100000
H      -46.35030000     -29.25130000     -70.53990000
H      -42.90470000     -31.20170000     -71.79220000
H      -43.48220000     -30.45370000     -67.55970000
H      -45.57720000     -29.40080000     -68.06840000
C      -41.82690000     -31.87340000     -69.39280000
H      -41.76800000     -32.05880000     -68.37780000
H      -40.97850000     -31.25160000     -69.79260000
C      -44.95540000     -29.80270000     -72.77060000
H      -46.03280000     -29.58560000     -72.79040000
H      -44.48550000     -28.91710000     -73.27130000
S      -41.85810000     -33.45260000     -70.27850000
S      -44.61930000     -31.32400000     -73.75160000
C      -43.39390000     -34.32380000     -69.76800000
H      -43.07970000     -35.30950000     -69.38680000
H      -43.84940000     -33.80580000     -68.92490000
C      -46.19510000     -32.33490000     -73.41470000
H      -47.03380000     -31.99380000     -73.98080000
H      -46.35860000     -32.19940000     -72.34460000
C      -45.94010000     -33.82930000     -73.88320000
H      -45.98450000     -33.81640000     -75.02170000
H      -44.88230000     -33.99590000     -73.65950000
C      -44.34020000     -34.29510000     -70.97330000
H      -43.85410000     -34.58870000     -71.83780000
H      -44.61570000     -33.30150000     -71.11380000
C      -45.62320000     -35.13010000     -70.73320000
C      -45.96150000     -35.80510000     -69.61170000
C      -46.56390000     -35.36210000     -71.80560000
H      -45.34900000     -36.07620000     -68.66600000
C      -47.64350000     -36.15300000     -71.37840000
C      -46.75710000     -34.89790000     -73.17680000
C      -47.89850000     -35.41140000     -73.69600000
S      -47.45650000     -36.65470000     -69.74650000
S      -48.78850000     -36.45330000     -72.60300000
H      -48.33380000     -35.30000000     -74.66740000
