40
Properties=species:S:1:pos:R:3 #=T CELL(abcABC):=T 1.889726e+02=T 90.00000=T Traj:=T positionsangstrom=T Step:=T 0=T Bead:=T pbc="F F F"
C      -48.21410000     -34.32390000     -73.05710000
C      -48.43020000     -33.15010000     -72.34370000
C      -47.75960000     -31.98070000     -72.71620000
C      -46.78750000     -31.90420000     -73.77830000
C      -46.75180000     -33.04250000     -74.59540000
C      -47.47000000     -34.24620000     -74.23770000
H      -48.63530000     -35.26500000     -72.78530000
H      -48.01910000     -31.06020000     -72.22050000
H      -46.16760000     -33.11160000     -75.47780000
H      -47.33530000     -35.11510000     -74.87080000
C      -46.15870000     -30.56120000     -74.02660000
H      -46.84910000     -29.75330000     -73.90290000
H      -45.61940000     -30.59500000     -74.96620000
C      -49.38290000     -33.26510000     -71.19500000
H      -50.30360000     -32.73110000     -71.54810000
H      -49.68580000     -34.36650000     -71.04090000
S      -44.90790000     -30.20240000     -72.70490000
S      -48.73370000     -32.50520000     -69.61510000
C      -44.01710000     -31.80940000     -72.58590000
H      -44.64620000     -32.65720000     -72.46270000
H      -43.47560000     -32.07270000     -73.53550000
C      -47.35950000     -33.69960000     -69.25290000
H      -47.73180000     -34.67550000     -69.73970000
H      -47.35180000     -33.91430000     -68.13530000
C      -45.97290000     -33.12190000     -69.69750000
H      -46.11560000     -32.52080000     -70.64150000
H      -45.68080000     -32.38630000     -68.95580000
C      -43.04590000     -31.75300000     -71.47160000
H      -43.42110000     -31.12340000     -70.67520000
H      -42.16720000     -31.23440000     -71.97290000
C      -42.70180000     -33.11470000     -70.95640000
C      -41.41420000     -33.56980000     -71.04060000
C      -43.48350000     -34.13120000     -70.26140000
H      -40.53230000     -33.01370000     -71.36960000
C      -42.77040000     -35.30270000     -70.04360000
C      -44.87190000     -34.24770000     -69.77030000
C      -45.10110000     -35.53510000     -69.30130000
S      -41.12710000     -35.27680000     -70.55800000
S      -43.70860000     -36.62610000     -69.41210000
H      -45.86700000     -35.94890000     -68.70800000
