40
Properties=species:S:1:pos:R:3 #=T CELL(abcABC):=T 1.889726e+02=T 90.00000=T Traj:=T positionsangstrom=T Step:=T 0=T Bead:=T pbc="F F F"
C      -42.76390000     -32.16030000     -68.51710000
C      -43.75040000     -31.36860000     -69.13620000
C      -45.07470000     -31.65700000     -68.92420000
C      -45.47190000     -32.86860000     -68.32840000
C      -44.46840000     -33.64580000     -67.74510000
C      -43.08330000     -33.29000000     -67.78640000
H      -41.76640000     -31.83500000     -68.64350000
H      -45.91970000     -31.12430000     -69.40450000
H      -44.66010000     -34.57020000     -67.24730000
H      -42.31710000     -33.86350000     -67.29460000
C      -46.87990000     -33.15920000     -67.97050000
H      -47.68070000     -32.63380000     -68.48000000
H      -46.99210000     -32.88060000     -66.89350000
C      -43.29660000     -30.04570000     -69.75800000
H      -44.00710000     -29.30640000     -69.48530000
H      -42.24670000     -29.88030000     -69.31900000
S      -47.18860000     -34.96480000     -67.95870000
S      -42.91580000     -29.92860000     -71.64440000
C      -47.08750000     -35.37680000     -69.68430000
H      -46.74630000     -36.47290000     -69.67160000
H      -48.08120000     -35.35990000     -70.00210000
C      -44.35060000     -30.78890000     -72.45770000
H      -44.31870000     -30.49570000     -73.49020000
H      -45.21650000     -30.26540000     -72.01980000
C      -44.37610000     -32.28940000     -72.23750000
H      -43.38020000     -32.63810000     -72.01690000
H      -44.91010000     -32.51020000     -71.30930000
C      -46.34170000     -34.46460000     -70.62930000
H      -45.23070000     -34.44600000     -70.47770000
H      -46.57600000     -33.39420000     -70.54100000
C      -46.44390000     -34.90600000     -72.08180000
C      -47.00040000     -36.11780000     -72.41290000
C      -45.82030000     -34.23180000     -73.23760000
H      -47.63370000     -36.59700000     -71.73020000
C      -46.17610000     -34.86150000     -74.40040000
C      -45.01860000     -33.05720000     -73.37970000
C      -44.79050000     -32.75980000     -74.69800000
S      -47.04110000     -36.35480000     -74.19240000
S      -45.44990000     -34.04440000     -75.78190000
H      -44.09000000     -31.94790000     -75.08050000
