40
Properties=species:S:1:pos:R:3 #=T CELL(abcABC):=T 1.889726e+02=T 90.00000=T Traj:=T positionsangstrom=T Step:=T 0=T Bead:=T pbc="F F F"
C      -44.83160000     -29.41710000     -70.89910000
C      -44.15230000     -30.10500000     -71.93080000
C      -43.07970000     -30.96110000     -71.60310000
C      -42.78530000     -31.25930000     -70.25280000
C      -43.41010000     -30.52280000     -69.24070000
C      -44.55120000     -29.68390000     -69.54500000
H      -45.71870000     -28.77310000     -71.22030000
H      -42.56550000     -31.56140000     -72.33520000
H      -43.19350000     -30.56220000     -68.24020000
H      -45.02290000     -29.12500000     -68.69130000
C      -41.67000000     -32.18060000     -69.88710000
H      -41.65740000     -32.34950000     -68.82980000
H      -40.75480000     -31.65950000     -70.06420000
C      -44.48790000     -29.79480000     -73.38800000
H      -45.16180000     -28.91650000     -73.53720000
H      -43.68870000     -29.60060000     -74.11110000
S      -41.74190000     -33.90460000     -70.77480000
S      -45.25970000     -31.25640000     -74.24640000
C      -43.16540000     -34.73410000     -70.03520000
H      -43.14090000     -35.70840000     -70.48120000
H      -43.03710000     -34.96300000     -68.95270000
C      -46.37910000     -32.20190000     -73.10410000
H      -47.39480000     -31.87610000     -73.35980000
H      -46.11550000     -32.04040000     -72.00620000
C      -46.18980000     -33.71650000     -73.41320000
H      -46.39030000     -33.90430000     -74.45230000
H      -45.19510000     -34.04440000     -73.25490000
C      -44.47140000     -34.03200000     -70.39850000
H      -44.32070000     -33.65740000     -71.43110000
H      -44.68950000     -33.23290000     -69.55860000
C      -45.72480000     -34.94020000     -70.33720000
C      -46.06670000     -35.50430000     -69.16150000
C      -46.69430000     -35.19740000     -71.35540000
H      -45.47880000     -35.44330000     -68.26140000
C      -47.58900000     -36.20370000     -70.83500000
C      -47.15260000     -34.63720000     -72.64680000
C      -48.30570000     -35.21540000     -73.06360000
S      -47.47100000     -36.58100000     -69.16030000
S      -48.97210000     -36.32490000     -71.89150000
H      -48.95900000     -34.87420000     -73.91120000
