40
Properties=species:S:1:pos:R:3 #=T CELL(abcABC):=T 1.889726e+02=T 90.00000=T Traj:=T positionsangstrom=T Step:=T 0=T Bead:=T pbc="F F F"
C      -48.81470000     -33.77820000     -73.07060000
C      -48.63180000     -32.71030000     -72.14380000
C      -47.72760000     -31.70230000     -72.49220000
C      -47.01570000     -31.67630000     -73.69010000
C      -47.19890000     -32.76310000     -74.59710000
C      -47.94320000     -33.91210000     -74.19970000
H      -49.42980000     -34.59490000     -72.82110000
H      -47.58990000     -30.88560000     -71.78720000
H      -46.50390000     -32.79730000     -75.49540000
H      -47.97010000     -34.77970000     -74.82830000
C      -46.10890000     -30.54840000     -74.08440000
H      -46.64690000     -29.58490000     -74.06870000
H      -45.88720000     -30.66120000     -75.14770000
C      -49.36870000     -32.65320000     -70.80310000
H      -50.14990000     -31.87630000     -70.84160000
H      -49.87640000     -33.60750000     -70.66540000
S      -44.58790000     -30.27770000     -72.96540000
S      -48.23060000     -32.16250000     -69.39470000
C      -43.95240000     -31.97570000     -72.50210000
H      -44.73160000     -32.77520000     -72.41770000
H      -43.22950000     -32.32650000     -73.26030000
C      -47.19410000     -33.66560000     -69.16080000
H      -47.88320000     -34.48830000     -69.16410000
H      -46.73320000     -33.51550000     -68.13030000
C      -46.10150000     -33.75910000     -70.33060000
H      -46.60380000     -34.04170000     -71.27360000
H      -45.66910000     -32.77220000     -70.46690000
C      -43.28940000     -31.94370000     -71.09640000
H      -43.98490000     -31.47500000     -70.39030000
H      -42.54360000     -31.20460000     -71.26060000
C      -42.78950000     -33.33310000     -70.71870000
C      -41.45250000     -33.53300000     -70.81920000
C      -43.59740000     -34.47050000     -70.37750000
H      -40.60670000     -32.92130000     -71.00710000
C      -42.79700000     -35.57990000     -70.23390000
C      -44.99750000     -34.72260000     -70.06730000
C      -45.07970000     -36.08530000     -69.60490000
S      -41.09060000     -35.20360000     -70.50690000
S      -43.60560000     -36.96340000     -69.56760000
H      -45.97600000     -36.70090000     -69.42440000
