40
Properties=species:S:1:pos:R:3 #=T CELL(abcABC):=T 1.889726e+02=T 90.00000=T Traj:=T positionsangstrom=T Step:=T 0=T Bead:=T pbc="F F F"
C      -48.44250000     -33.65220000     -73.00480000
C      -48.46900000     -32.33550000     -72.42880000
C      -47.34590000     -31.51650000     -72.75330000
C      -46.45810000     -31.90580000     -73.77160000
C      -46.53120000     -33.17690000     -74.37860000
C      -47.54150000     -34.00760000     -73.97320000
H      -49.25560000     -34.32530000     -72.63540000
H      -47.16660000     -30.55420000     -72.28020000
H      -45.83030000     -33.43290000     -75.11460000
H      -47.66460000     -34.93130000     -74.48160000
C      -45.34290000     -30.96180000     -74.19810000
H      -45.76330000     -30.06320000     -74.66360000
H      -44.61170000     -31.37690000     -74.96580000
C      -49.29730000     -31.91660000     -71.30960000
H      -49.59550000     -30.82760000     -71.47830000
H      -50.20990000     -32.48620000     -71.08350000
S      -44.40830000     -30.37580000     -72.73100000
S      -48.36170000     -31.96990000     -69.69110000
C      -43.64030000     -31.95570000     -72.31950000
H      -44.37170000     -32.69070000     -72.53860000
H      -42.81540000     -32.16790000     -73.06380000
C      -47.48740000     -33.56390000     -69.76790000
H      -47.95890000     -34.21330000     -70.48150000
H      -47.55050000     -33.99070000     -68.75590000
C      -46.05910000     -33.31400000     -70.16800000
H      -45.93670000     -32.83830000     -71.15730000
H      -45.62610000     -32.61660000     -69.44040000
C      -43.15700000     -32.00040000     -70.89490000
H      -43.84460000     -31.56350000     -70.15600000
H      -42.20560000     -31.37320000     -70.82510000
C      -42.82170000     -33.40040000     -70.55060000
C      -41.48550000     -33.90180000     -70.44330000
C      -43.78550000     -34.44980000     -70.28240000
H      -40.63790000     -33.29320000     -70.62660000
C      -43.15530000     -35.68160000     -70.02250000
C      -45.18480000     -34.52500000     -70.13990000
C      -45.61130000     -35.83470000     -69.93640000
S      -41.41480000     -35.61960000     -70.10230000
S      -44.30790000     -36.97540000     -69.74810000
H      -46.60100000     -36.14670000     -69.67670000
