40
Properties=species:S:1:pos:R:3 #=T CELL(abcABC):=T 1.889726e+02=T 90.00000=T Traj:=T positionsangstrom=T Step:=T 0=T Bead:=T pbc="F F F"
C      -48.44750000     -33.80210000     -73.03540000
C      -48.46630000     -32.70290000     -72.17630000
C      -47.61120000     -31.64740000     -72.52140000
C      -46.99870000     -31.56630000     -73.81170000
C      -47.04110000     -32.70480000     -74.66640000
C      -47.79040000     -33.81600000     -74.26140000
H      -49.09340000     -34.54450000     -72.81760000
H      -47.49720000     -30.83830000     -71.81270000
H      -46.64700000     -32.66900000     -75.64810000
H      -47.91810000     -34.69110000     -74.90880000
C      -46.08630000     -30.46180000     -74.19930000
H      -46.59860000     -29.48610000     -74.29780000
H      -45.61880000     -30.60830000     -75.21480000
C      -49.21650000     -32.73120000     -70.87410000
H      -50.10200000     -32.07310000     -70.80280000
H      -49.64850000     -33.73680000     -70.69150000
S      -44.72800000     -30.14420000     -72.90190000
S      -48.19760000     -32.21230000     -69.42320000
C      -44.23440000     -31.92270000     -72.51350000
H      -45.10250000     -32.59730000     -72.69130000
H      -43.55830000     -32.22900000     -73.29630000
C      -47.14300000     -33.68700000     -69.10860000
H      -47.71610000     -34.54360000     -68.83010000
H      -46.59460000     -33.42870000     -68.19940000
C      -46.12150000     -33.93740000     -70.28290000
H      -46.70530000     -34.34910000     -71.12830000
H      -45.76660000     -32.98030000     -70.59650000
C      -43.57520000     -32.03350000     -71.18370000
H      -44.24320000     -31.77020000     -70.34500000
H      -42.71780000     -31.37720000     -70.96670000
C      -42.89240000     -33.39210000     -70.83940000
C      -41.58850000     -33.61240000     -71.08340000
C      -43.59900000     -34.45360000     -70.17440000
H      -40.90970000     -32.95370000     -71.68100000
C      -42.77240000     -35.58320000     -70.00770000
C      -45.00300000     -34.77450000     -69.94890000
C      -45.15000000     -36.13990000     -69.55820000
S      -41.14180000     -35.18330000     -70.47340000
S      -43.54940000     -36.99530000     -69.50990000
H      -46.17860000     -36.57090000     -69.50510000
