40
Properties=species:S:1:pos:R:3 #=T CELL(abcABC):=T 1.889726e+02=T 90.00000=T Traj:=T positionsangstrom=T Step:=T 0=T Bead:=T pbc="F F F"
C      -44.83570000     -29.59260000     -71.00570000
C      -44.16970000     -30.19760000     -72.10930000
C      -43.12270000     -31.03730000     -71.77820000
C      -42.72270000     -31.22610000     -70.43390000
C      -43.41210000     -30.64580000     -69.33040000
C      -44.40330000     -29.75060000     -69.67150000
H      -45.66900000     -28.98760000     -71.21810000
H      -42.56550000     -31.66480000     -72.51380000
H      -42.91390000     -30.86660000     -68.30650000
H      -44.99090000     -29.39260000     -68.83410000
C      -41.55670000     -32.10820000     -70.09240000
H      -41.32750000     -32.21840000     -69.07790000
H      -40.61580000     -31.87760000     -70.56920000
C      -44.48950000     -30.03460000     -73.56780000
H      -45.40480000     -29.44910000     -73.67380000
H      -43.59690000     -29.59440000     -74.05790000
S      -41.70000000     -33.84370000     -70.97540000
S      -45.03890000     -31.65040000     -74.19230000
C      -43.13340000     -34.47420000     -70.01070000
H      -43.00190000     -35.57180000     -70.21030000
H      -43.02330000     -34.17990000     -68.94130000
C      -46.29710000     -32.26920000     -73.06170000
H      -47.26490000     -31.64970000     -73.13060000
H      -45.93470000     -32.02770000     -72.06100000
C      -46.59870000     -33.70380000     -73.42510000
H      -47.10920000     -33.67780000     -74.33870000
H      -45.73790000     -34.38940000     -73.54640000
C      -44.46910000     -34.09110000     -70.76910000
H      -44.25040000     -34.20450000     -71.85900000
H      -44.61550000     -32.97810000     -70.69950000
C      -45.69690000     -34.88380000     -70.32980000
C      -45.73290000     -35.63150000     -69.19040000
C      -46.93050000     -34.97680000     -71.16520000
H      -44.92400000     -35.74610000     -68.49320000
C      -47.78930000     -35.83800000     -70.52660000
C      -47.46460000     -34.46880000     -72.46960000
C      -48.65520000     -35.02340000     -72.80300000
S      -47.25780000     -36.48610000     -69.02870000
S      -49.17170000     -36.17730000     -71.55600000
H      -49.11500000     -35.15320000     -73.69910000
