40
Properties=species:S:1:pos:R:3 #=T CELL(abcABC):=T 1.889726e+02=T 90.00000=T Traj:=T positionsangstrom=T Step:=T 0=T Bead:=T pbc="F F F"
C      -48.00210000     -33.84990000     -73.35200000
C      -48.23410000     -32.58850000     -72.79080000
C      -47.35520000     -31.57370000     -73.01900000
C      -46.26890000     -31.78300000     -73.84910000
C      -46.05870000     -32.99120000     -74.47690000
C      -46.87990000     -34.07400000     -74.15210000
H      -48.58810000     -34.67890000     -72.98860000
H      -47.63930000     -30.54380000     -72.56930000
H      -45.18870000     -33.08650000     -75.08670000
H      -46.75310000     -35.12910000     -74.45980000
C      -45.32380000     -30.62380000     -74.08280000
H      -45.77110000     -29.68040000     -74.02050000
H      -44.94570000     -30.70170000     -75.17950000
C      -49.37660000     -32.41170000     -71.78960000
H      -49.95730000     -31.47900000     -71.94250000
H      -50.11370000     -33.25950000     -71.76900000
S      -43.78240000     -30.46900000     -73.04220000
S      -48.79200000     -32.02040000     -70.03250000
C      -43.65800000     -32.15750000     -72.37630000
H      -44.59200000     -32.71700000     -72.51460000
H      -42.88360000     -32.72630000     -72.90990000
C      -47.81740000     -33.55230000     -69.77810000
H      -48.21990000     -34.31590000     -70.41540000
H      -47.97520000     -33.87150000     -68.74630000
C      -46.32120000     -33.22880000     -69.97870000
H      -46.13730000     -32.83170000     -70.98180000
H      -46.08390000     -32.44270000     -69.29240000
C      -43.22370000     -32.00100000     -70.89430000
H      -44.08010000     -31.57830000     -70.29950000
H      -42.35900000     -31.32950000     -70.81140000
C      -42.87930000     -33.39180000     -70.33240000
C      -41.61590000     -33.91410000     -70.39260000
C      -43.88180000     -34.33380000     -69.86620000
H      -40.75150000     -33.34070000     -70.68190000
C      -43.30640000     -35.59020000     -69.65580000
C      -45.38060000     -34.41020000     -69.83700000
C      -45.78160000     -35.65090000     -69.53190000
S      -41.60850000     -35.58910000     -69.96790000
S      -44.43960000     -36.82940000     -69.28120000
H      -46.85080000     -35.90410000     -69.36100000
