40
Properties=species:S:1:pos:R:3 #=T CELL(abcABC):=T 1.889726e+02=T 90.00000=T Traj:=T positionsangstrom=T Step:=T 0=T Bead:=T pbc="F F F"
C      -45.11970000     -35.64160000     -73.74200000
C      -45.65450000     -36.24730000     -72.61180000
C      -47.04350000     -36.03430000     -72.26990000
C      -47.78080000     -35.07280000     -72.98120000
C      -47.17600000     -34.38840000     -74.04030000
C      -45.83530000     -34.64690000     -74.37690000
H      -44.11230000     -35.89550000     -74.06650000
H      -47.57180000     -36.40880000     -71.32860000
H      -47.73620000     -33.59970000     -74.58250000
H      -45.39490000     -34.13010000     -75.24180000
C      -49.24540000     -34.75790000     -72.58380000
H      -49.83270000     -35.62140000     -72.40930000
H      -49.72710000     -34.18530000     -73.33740000
C      -44.81920000     -37.30240000     -71.89520000
H      -45.34650000     -38.25870000     -71.69000000
H      -43.95980000     -37.53770000     -72.60800000
S      -49.18000000     -33.86690000     -70.90570000
S      -44.25270000     -36.73240000     -70.19750000
C      -48.00690000     -32.43840000     -71.19110000
H      -48.01370000     -31.95020000     -72.12430000
H      -48.38030000     -31.67880000     -70.42730000
C      -43.34140000     -35.17900000     -70.52250000
H      -43.75170000     -34.86680000     -71.45540000
H      -42.26290000     -35.32820000     -70.73500000
C      -43.61500000     -34.08520000     -69.39250000
H      -44.66950000     -34.24590000     -69.28410000
H      -43.06810000     -34.27750000     -68.47690000
C      -46.55350000     -32.78460000     -70.82200000
H      -46.22510000     -33.60470000     -71.47480000
H      -46.55350000     -33.09350000     -69.77640000
C      -45.58780000     -31.60660000     -70.87580000
C      -45.91910000     -30.36290000     -71.32460000
C      -44.20430000     -31.68610000     -70.43600000
H      -46.81440000     -30.15260000     -71.84250000
C      -43.57570000     -30.46920000     -70.56070000
C      -43.30070000     -32.64660000     -69.85880000
C      -41.94730000     -32.25530000     -69.84210000
S      -44.53670000     -29.25020000     -71.29040000
S      -41.77800000     -30.62440000     -70.35330000
H      -41.13170000     -32.89490000     -69.57930000
