40
Properties=species:S:1:pos:R:3 #=T CELL(abcABC):=T 1.889726e+02=T 90.00000=T Traj:=T positionsangstrom=T Step:=T 0=T Bead:=T pbc="F F F"
C      -47.77670000     -33.88520000     -73.47630000
C      -48.13740000     -32.61370000     -72.87580000
C      -47.30690000     -31.52530000     -73.13020000
C      -46.22950000     -31.64480000     -73.99970000
C      -45.91520000     -32.89060000     -74.59490000
C      -46.65200000     -34.04670000     -74.31540000
H      -48.41750000     -34.72030000     -73.33600000
H      -47.57190000     -30.60420000     -72.48280000
H      -45.10600000     -32.91160000     -75.21200000
H      -46.49980000     -35.06800000     -74.69940000
C      -45.27360000     -30.56190000     -74.28550000
H      -45.77060000     -29.71940000     -73.91430000
H      -45.20750000     -30.45000000     -75.38040000
C      -49.35010000     -32.47280000     -72.03150000
H      -49.90390000     -31.64960000     -72.45840000
H      -49.87940000     -33.36120000     -72.17450000
S      -43.68110000     -30.50210000     -73.31720000
S      -48.89300000     -32.09960000     -70.25500000
C      -43.50850000     -32.13570000     -72.31760000
H      -44.39430000     -32.72500000     -72.41000000
H      -42.63450000     -32.70430000     -72.76870000
C      -47.75070000     -33.47280000     -69.79810000
H      -48.00980000     -34.43430000     -70.36030000
H      -47.89180000     -33.73010000     -68.71400000
C      -46.25770000     -33.16290000     -69.95420000
H      -46.06980000     -32.81140000     -70.99900000
H      -45.94350000     -32.29040000     -69.39900000
C      -43.36990000     -32.02860000     -70.78050000
H      -44.26220000     -31.74320000     -70.30570000
H      -42.55100000     -31.32430000     -70.52530000
C      -43.03710000     -33.45840000     -70.30000000
C      -41.71120000     -33.86160000     -70.21030000
C      -44.00310000     -34.38870000     -69.83450000
H      -40.84640000     -33.27910000     -70.44040000
C      -43.41940000     -35.61940000     -69.47710000
C      -45.45320000     -34.41540000     -69.66280000
C      -45.81480000     -35.58970000     -69.06750000
S      -41.63200000     -35.59540000     -69.72790000
S      -44.59920000     -36.84800000     -69.02940000
H      -46.86020000     -35.92380000     -68.78970000
