40
Properties=species:S:1:pos:R:3 #=T CELL(abcABC):=T 1.889726e+02=T 90.00000=T Traj:=T positionsangstrom=T Step:=T 0=T Bead:=T pbc="F F F"
C      -44.67270000     -32.13970000     -68.67100000
C      -43.66440000     -33.11870000     -68.79080000
C      -44.05040000     -34.40570000     -69.13070000
C      -45.42430000     -34.72360000     -69.41140000
C      -46.37450000     -33.67250000     -69.47010000
C      -45.96130000     -32.42670000     -69.12010000
H      -44.41250000     -31.15800000     -68.35660000
H      -43.28470000     -35.17500000     -69.17440000
H      -47.33520000     -33.98720000     -69.62680000
H      -46.70800000     -31.62010000     -69.03480000
C      -45.85470000     -36.14750000     -69.70540000
H      -46.93330000     -36.16450000     -69.98180000
H      -45.85290000     -36.73460000     -68.74280000
C      -42.25550000     -32.54930000     -68.59870000
H      -42.37630000     -31.61460000     -68.00890000
H      -41.52520000     -33.27740000     -68.13830000
S      -45.00030000     -37.17810000     -70.86160000
S      -41.37900000     -32.05260000     -70.24420000
C      -45.98160000     -36.66800000     -72.37040000
H      -45.78300000     -37.43910000     -73.05110000
H      -47.01060000     -36.62460000     -72.03310000
C      -42.86870000     -31.53060000     -71.25980000
H      -42.47040000     -30.96310000     -72.11700000
H      -43.42150000     -30.85240000     -70.66390000
C      -43.75900000     -32.58660000     -71.87620000
H      -43.16450000     -32.94540000     -72.65600000
H      -44.03860000     -33.42990000     -71.20110000
C      -45.33070000     -35.46420000     -73.01750000
H      -44.86580000     -35.86380000     -73.87780000
H      -44.52400000     -35.11740000     -72.34980000
C      -46.30140000     -34.28450000     -73.24730000
C      -47.47090000     -34.46530000     -73.93340000
C      -46.14540000     -32.92540000     -72.74260000
H      -47.81260000     -35.31520000     -74.39760000
C      -47.24120000     -32.14230000     -73.01820000
C      -45.08560000     -32.08040000     -72.20430000
C      -45.49440000     -30.80590000     -71.93960000
S      -48.51570000     -33.02250000     -73.82720000
S      -47.21640000     -30.56800000     -72.35510000
H      -44.89910000     -29.93350000     -71.48850000
