40
Properties=species:S:1:pos:R:3 #=T CELL(abcABC):=T 1.889726e+02=T 90.00000=T Traj:=T positionsangstrom=T Step:=T 0=T Bead:=T pbc="F F F"
C      -44.86740000     -32.23410000     -68.74890000
C      -43.75060000     -33.07710000     -68.60160000
C      -44.00010000     -34.45190000     -68.79340000
C      -45.27100000     -34.94590000     -69.09100000
C      -46.34380000     -34.05960000     -69.26420000
C      -46.17430000     -32.66460000     -69.03370000
H      -44.72120000     -31.13690000     -68.74310000
H      -43.14330000     -35.09560000     -68.76770000
H      -47.40950000     -34.41250000     -69.31770000
H      -47.07910000     -32.00940000     -69.01320000
C      -45.51230000     -36.43680000     -69.13900000
H      -46.63460000     -36.55000000     -69.15690000
H      -45.18990000     -37.07370000     -68.29930000
C      -42.32820000     -32.57680000     -68.54300000
H      -42.27290000     -31.58700000     -68.08100000
H      -41.63720000     -33.09680000     -67.83610000
S      -44.99090000     -37.12050000     -70.78120000
S      -41.63200000     -32.74380000     -70.22780000
C      -46.10150000     -36.31780000     -72.05250000
H      -46.26160000     -37.06970000     -72.84270000
H      -47.05000000     -35.98860000     -71.74970000
C      -42.75420000     -31.54910000     -71.21790000
H      -42.25340000     -30.97030000     -71.98080000
H      -43.19940000     -30.81480000     -70.43560000
C      -43.76780000     -32.47840000     -71.83740000
H      -43.30510000     -33.05060000     -72.67340000
H      -44.24510000     -33.19200000     -71.13870000
C      -45.32830000     -35.16560000     -72.73900000
H      -44.83370000     -35.58580000     -73.65670000
H      -44.52740000     -34.75030000     -72.12360000
C      -46.28450000     -34.08610000     -73.25720000
C      -47.51620000     -34.40900000     -73.74760000
C      -46.00180000     -32.65540000     -73.08060000
H      -48.00400000     -35.37410000     -73.96800000
C      -47.21010000     -31.96540000     -73.33680000
C      -44.98040000     -31.82200000     -72.50730000
C      -45.45620000     -30.52470000     -72.30850000
S      -48.52400000     -32.97720000     -73.93430000
S      -47.06710000     -30.27260000     -72.89960000
H      -44.81400000     -29.68190000     -71.86210000
