40
Properties=species:S:1:pos:R:3 #=T CELL(abcABC):=T 1.889726e+02=T 90.00000=T Traj:=T positionsangstrom=T Step:=T 0=T Bead:=T pbc="F F F"
C      -45.16460000     -32.48850000     -68.54430000
C      -44.00970000     -33.23990000     -68.91800000
C      -44.18790000     -34.49880000     -69.52650000
C      -45.45970000     -34.99620000     -69.70350000
C      -46.59480000     -34.26210000     -69.39260000
C      -46.43980000     -32.98840000     -68.83410000
H      -45.10690000     -31.65990000     -67.90120000
H      -43.20620000     -35.07160000     -69.81160000
H      -47.53310000     -34.54490000     -69.73470000
H      -47.22930000     -32.37000000     -68.51450000
C      -45.69920000     -36.38660000     -70.18530000
H      -46.74350000     -36.53350000     -70.51500000
H      -45.37160000     -37.05990000     -69.36990000
C      -42.58120000     -32.84130000     -68.63600000
H      -42.44670000     -32.03810000     -67.90290000
H      -42.02780000     -33.65930000     -68.11400000
S      -44.55490000     -36.84040000     -71.57190000
S      -41.54140000     -32.51540000     -70.20540000
C      -45.65400000     -36.39640000     -73.01350000
H      -45.44320000     -37.16440000     -73.69890000
H      -46.70670000     -36.48190000     -72.77710000
C      -42.46920000     -31.52200000     -71.42510000
H      -41.59330000     -31.13640000     -71.99500000
H      -42.85350000     -30.65220000     -70.93240000
C      -43.48430000     -32.21490000     -72.38540000
H      -43.08340000     -31.81060000     -73.32070000
H      -43.39900000     -33.25960000     -72.46820000
C      -45.33150000     -35.08910000     -73.74460000
H      -45.45320000     -35.24930000     -74.88740000
H      -44.34100000     -34.93580000     -73.44630000
C      -46.34750000     -33.95960000     -73.38170000
C      -47.67050000     -34.10860000     -73.73240000
C      -46.07780000     -32.67880000     -72.71490000
H      -48.13140000     -35.00800000     -74.15930000
C      -47.26580000     -32.06330000     -72.35900000
C      -44.93870000     -31.87670000     -72.25280000
C      -45.31990000     -30.74310000     -71.64040000
S      -48.70140000     -32.83740000     -73.06350000
S      -47.06240000     -30.53170000     -71.56380000
H      -44.69250000     -30.05330000     -71.02350000
