40
Properties=species:S:1:pos:R:3 #=T CELL(abcABC):=T 1.889726e+02=T 90.00000=T Traj:=T positionsangstrom=T Step:=T 0=T Bead:=T pbc="F F F"
C      -46.65080000     -34.40660000     -73.75860000
C      -47.36720000     -33.13030000     -73.78300000
C      -46.60650000     -31.94030000     -73.80500000
C      -45.25500000     -31.96070000     -74.00030000
C      -44.58410000     -33.21560000     -73.87060000
C      -45.23400000     -34.46000000     -73.80220000
H      -47.23240000     -35.28250000     -73.79920000
H      -47.13920000     -30.99410000     -73.73140000
H      -43.48650000     -33.13660000     -73.87770000
H      -44.67700000     -35.48970000     -73.75070000
C      -44.36760000     -30.71380000     -74.19520000
H      -44.82380000     -29.88410000     -74.62040000
H      -43.44470000     -30.98530000     -74.75160000
C      -48.82520000     -33.15770000     -73.57260000
H      -49.26630000     -32.42490000     -74.17060000
H      -49.32280000     -34.14830000     -73.90970000
S      -43.88670000     -29.96240000     -72.58510000
S      -49.23870000     -32.82280000     -71.83190000
C      -43.08810000     -31.10390000     -71.45920000
H      -42.63550000     -31.87880000     -72.08630000
H      -42.22300000     -30.52070000     -71.09400000
C      -48.18150000     -34.03660000     -71.01880000
H      -47.98930000     -34.99770000     -71.57850000
H      -48.85480000     -34.43250000     -70.24860000
C      -46.88520000     -33.52810000     -70.52310000
H      -46.33920000     -33.15450000     -71.44730000
H      -46.97140000     -32.61560000     -69.93410000
C      -44.11940000     -31.75800000     -70.49760000
H      -45.08540000     -31.80340000     -71.01240000
H      -44.24320000     -31.03060000     -69.69480000
C      -43.63220000     -33.15140000     -69.91140000
C      -42.31180000     -33.46180000     -69.73610000
C      -44.54290000     -34.17970000     -69.52560000
H      -41.48980000     -32.75930000     -69.80190000
C      -43.86900000     -35.23470000     -68.87600000
C      -45.91380000     -34.47730000     -69.76740000
C      -46.28130000     -35.63850000     -69.12660000
S      -42.11250000     -35.00740000     -68.96680000
S      -44.95300000     -36.51470000     -68.39820000
H      -47.26250000     -36.16600000     -68.96800000
