40
Properties=species:S:1:pos:R:3 #=T CELL(abcABC):=T 1.889726e+02=T 90.00000=T Traj:=T positionsangstrom=T Step:=T 0=T Bead:=T pbc="F F F"
C      -46.32820000     -34.50220000     -73.46620000
C      -47.07190000     -33.31370000     -73.34030000
C      -46.43530000     -32.05600000     -73.43520000
C      -45.03910000     -31.95180000     -73.79270000
C      -44.37570000     -33.11970000     -73.95340000
C      -44.94640000     -34.42670000     -73.72900000
H      -46.96430000     -35.41000000     -73.47170000
H      -47.06350000     -31.16420000     -73.59050000
H      -43.36400000     -33.09660000     -74.38220000
H      -44.38550000     -35.31090000     -74.05470000
C      -44.38010000     -30.65910000     -74.17480000
H      -45.06610000     -29.81520000     -74.57660000
H      -43.64470000     -30.85370000     -74.92330000
C      -48.57880000     -33.49260000     -73.42870000
H      -49.02480000     -32.81240000     -74.25820000
H      -48.78080000     -34.48350000     -73.82560000
S      -43.61980000     -29.91610000     -72.65450000
S      -49.52400000     -33.31510000     -71.89380000
C      -43.14040000     -31.21380000     -71.47300000
H      -42.67240000     -32.10970000     -71.95040000
H      -42.32230000     -30.77490000     -70.94170000
C      -48.40430000     -34.24950000     -70.83700000
H      -48.04480000     -35.08080000     -71.48760000
H      -49.02630000     -34.61210000     -69.95820000
C      -47.22030000     -33.41260000     -70.19530000
H      -46.92650000     -32.58390000     -70.80220000
H      -47.58930000     -32.96460000     -69.26630000
C      -44.16870000     -31.54360000     -70.43670000
H      -45.14020000     -31.70890000     -70.90230000
H      -44.30740000     -30.67530000     -69.81120000
C      -43.80640000     -32.81110000     -69.72220000
C      -42.55280000     -33.09740000     -69.27720000
C      -44.64260000     -33.98720000     -69.64010000
H      -41.68460000     -32.43110000     -69.33060000
C      -43.95450000     -35.07600000     -69.12960000
C      -46.01650000     -34.31020000     -69.81990000
C      -46.28170000     -35.63170000     -69.55860000
S      -42.29500000     -34.79590000     -68.83340000
S      -44.86950000     -36.53380000     -69.11910000
H      -47.17360000     -36.09340000     -69.75560000
