40
Properties=species:S:1:pos:R:3 #=T CELL(abcABC):=T 1.889726e+02=T 90.00000=T Traj:=T positionsangstrom=T Step:=T 0=T Bead:=T pbc="F F F"
C      -45.87140000     -34.46250000     -73.68190000
C      -46.74840000     -33.41410000     -73.58970000
C      -46.25190000     -32.07130000     -73.58990000
C      -44.83480000     -31.88780000     -73.60280000
C      -43.97210000     -33.04260000     -73.58950000
C      -44.48930000     -34.32130000     -73.70130000
H      -46.29230000     -35.47960000     -73.60320000
H      -47.03310000     -31.33110000     -73.45150000
H      -42.91120000     -32.95470000     -73.38250000
H      -43.87960000     -35.19530000     -73.92910000
C      -44.15880000     -30.55820000     -73.58380000
H      -44.45040000     -30.01020000     -74.44420000
H      -43.01680000     -30.59600000     -73.59280000
C      -48.31000000     -33.53760000     -73.63130000
H      -48.66310000     -32.78550000     -74.39240000
H      -48.59220000     -34.54900000     -74.02400000
S      -44.37450000     -29.54630000     -72.05560000
S      -49.18110000     -33.22100000     -72.09080000
C      -43.72710000     -30.54370000     -70.63010000
H      -42.73210000     -30.84820000     -70.89470000
H      -43.69930000     -29.92550000     -69.70360000
C      -48.36790000     -34.41440000     -70.95900000
H      -47.81660000     -35.19360000     -71.56790000
H      -49.14350000     -35.01640000     -70.42090000
C      -47.41530000     -33.71050000     -70.03580000
H      -46.99590000     -32.76320000     -70.52560000
H      -47.83820000     -33.36410000     -69.06440000
C      -44.70940000     -31.68570000     -70.31330000
H      -45.25980000     -31.93320000     -71.16840000
H      -45.50630000     -31.34850000     -69.56750000
C      -44.00080000     -32.92950000     -69.84770000
C      -42.63590000     -33.09660000     -69.52990000
C      -44.76430000     -34.18640000     -69.81520000
H      -41.81130000     -32.40990000     -69.72970000
C      -43.93040000     -35.22200000     -69.51820000
C      -46.19490000     -34.54410000     -69.82450000
C      -46.27030000     -35.89890000     -69.53420000
S      -42.26530000     -34.78380000     -69.27660000
S      -44.75800000     -36.75260000     -69.38040000
H      -47.16030000     -36.44530000     -69.34100000
