40
Properties=species:S:1:pos:R:3 #=T CELL(abcABC):=T 1.889726e+02=T 90.00000=T Traj:=T positionsangstrom=T Step:=T 0=T Bead:=T pbc="F F F"
C      -44.86100000     -33.97500000     -66.82630000
C      -45.76440000     -33.34230000     -67.76620000
C      -45.19750000     -32.31560000     -68.63660000
C      -43.83510000     -32.16780000     -68.77000000
C      -42.98770000     -32.87700000     -67.95240000
C      -43.49460000     -33.76700000     -66.99660000
H      -45.13280000     -34.62220000     -65.94960000
H      -45.75840000     -31.64790000     -69.22590000
H      -41.93150000     -32.76590000     -68.15340000
H      -42.75370000     -34.24240000     -66.30840000
C      -43.40320000     -31.01570000     -69.63720000
H      -43.06920000     -30.18870000     -69.01440000
H      -44.21390000     -30.60100000     -70.12560000
C      -47.27770000     -33.51230000     -67.65260000
H      -47.61020000     -34.20620000     -66.84660000
H      -47.63870000     -32.51810000     -67.40950000
S      -42.07940000     -31.11520000     -70.87040000
S      -48.21990000     -33.97330000     -69.18390000
C      -43.03650000     -31.68720000     -72.35850000
H      -43.98400000     -31.07720000     -72.47590000
H      -42.37350000     -31.39060000     -73.18820000
C      -47.10160000     -35.19800000     -69.86620000
H      -47.64950000     -35.92850000     -70.36480000
H      -46.58740000     -35.71000000     -69.04910000
C      -46.05390000     -34.64400000     -70.79180000
H      -45.50190000     -33.68980000     -70.41550000
H      -45.27580000     -35.33110000     -71.05910000
C      -43.30550000     -33.16560000     -72.35720000
H      -43.60550000     -33.42640000     -71.38740000
H      -42.33110000     -33.55880000     -72.46660000
C      -44.21070000     -33.58040000     -73.48270000
C      -43.88120000     -33.30320000     -74.83670000
C      -45.60340000     -33.99860000     -73.34840000
H      -42.88670000     -33.06250000     -75.24320000
C      -46.22430000     -34.04400000     -74.63400000
C      -46.48170000     -34.41030000     -72.27880000
C      -47.73920000     -34.77110000     -72.74470000
S      -45.17030000     -33.60030000     -75.98470000
S      -47.92800000     -34.55970000     -74.52660000
H      -48.63380000     -34.96710000     -72.16480000
