40
Properties=species:S:1:pos:R:3 #=T CELL(abcABC):=T 1.889726e+02=T 90.00000=T Traj:=T positionsangstrom=T Step:=T 0=T Bead:=T pbc="F F F"
C      -46.24340000     -34.49710000     -73.89090000
C      -46.93950000     -33.25570000     -73.90730000
C      -46.26350000     -32.05800000     -73.80390000
C      -44.91090000     -31.95030000     -73.60230000
C      -44.22570000     -33.19470000     -73.42400000
C      -44.86340000     -34.41600000     -73.60870000
H      -46.71060000     -35.43190000     -74.13160000
H      -46.77660000     -31.08160000     -73.92350000
H      -43.16490000     -33.15710000     -73.20060000
H      -44.34870000     -35.37380000     -73.45210000
C      -44.14870000     -30.62030000     -73.62190000
H      -44.62340000     -29.93920000     -74.35030000
H      -43.09580000     -30.76420000     -73.84740000
C      -48.46580000     -33.38380000     -73.92560000
H      -49.02200000     -32.53090000     -74.37280000
H      -48.76960000     -34.33990000     -74.41880000
S      -44.46390000     -29.66220000     -72.05310000
S      -49.25190000     -33.36000000     -72.22260000
C      -43.44470000     -30.68470000     -70.84790000
H      -42.74190000     -31.37640000     -71.32900000
H      -42.86490000     -29.96190000     -70.29540000
C      -48.15780000     -34.46730000     -71.21220000
H      -47.56500000     -35.03130000     -71.98290000
H      -48.81050000     -35.25080000     -70.71520000
C      -47.15010000     -33.55900000     -70.39910000
H      -46.66020000     -32.89750000     -71.10660000
H      -47.67820000     -32.96820000     -69.62550000
C      -44.42340000     -31.52770000     -69.90800000
H      -45.42350000     -31.60900000     -70.37660000
H      -44.56480000     -31.16520000     -68.88250000
C      -43.88830000     -32.90360000     -69.69410000
C      -42.52070000     -33.12980000     -69.71820000
C      -44.65870000     -34.07890000     -69.46640000
H      -41.79790000     -32.35090000     -69.67800000
C      -43.86880000     -35.20550000     -69.20330000
C      -46.07780000     -34.41000000     -69.66380000
C      -46.26100000     -35.76650000     -69.49410000
S      -42.15230000     -34.84150000     -69.39470000
S      -44.79690000     -36.61280000     -68.89870000
H      -47.12660000     -36.40340000     -69.64500000
