40
Properties=species:S:1:pos:R:3 #=T CELL(abcABC):=T 1.889726e+02=T 90.00000=T Traj:=T positionsangstrom=T Step:=T 0=T Bead:=T pbc="F F F"
C      -41.22260000     -32.92740000     -70.30190000
C      -41.95590000     -33.39650000     -71.43120000
C      -42.68170000     -32.51270000     -72.22190000
C      -42.62750000     -31.06450000     -71.93280000
C      -41.85150000     -30.66570000     -70.85730000
C      -41.14740000     -31.56730000     -70.01580000
H      -40.72800000     -33.68060000     -69.63680000
H      -43.25080000     -32.84890000     -73.04030000
H      -41.80080000     -29.53100000     -70.67760000
H      -40.56620000     -31.21400000     -69.18030000
C      -43.34950000     -30.13380000     -72.78640000
H      -43.63100000     -30.39600000     -73.85940000
H      -42.77480000     -29.22870000     -73.02840000
C      -41.93870000     -34.91580000     -71.90210000
H      -42.09700000     -34.94520000     -72.96970000
H      -41.01260000     -35.42920000     -71.60730000
S      -45.07720000     -29.64590000     -72.10520000
S      -43.36380000     -35.86610000     -71.19570000
C      -46.20040000     -31.05190000     -72.58290000
H      -46.94780000     -30.74350000     -73.36170000
H      -45.54820000     -31.79170000     -73.04260000
C      -43.80410000     -34.97590000     -69.65630000
H      -42.90930000     -34.47550000     -69.23690000
H      -44.10840000     -35.62300000     -68.86930000
C      -45.00370000     -34.04730000     -69.94290000
H      -45.12880000     -33.47290000     -69.05660000
H      -44.74970000     -33.32500000     -70.78800000
C      -46.85930000     -31.56670000     -71.37670000
H      -47.47780000     -30.70910000     -70.87440000
H      -46.13590000     -31.65250000     -70.54910000
C      -47.67460000     -32.77170000     -71.53540000
C      -48.89740000     -32.77560000     -72.16600000
C      -47.37100000     -34.08440000     -70.97000000
H      -49.40680000     -31.85740000     -72.49360000
C      -48.40440000     -35.06300000     -71.28220000
C      -46.28360000     -34.71240000     -70.25210000
C      -46.55230000     -36.07310000     -70.07680000
S      -49.73780000     -34.30230000     -72.11670000
S      -48.10710000     -36.58410000     -70.60600000
H      -45.82050000     -36.80900000     -69.69130000
