40
Properties=species:S:1:pos:R:3 #=T CELL(abcABC):=T 1.889726e+02=T 90.00000=T Traj:=T positionsangstrom=T Step:=T 0=T Bead:=T pbc="F F F"
C      -45.03910000     -34.71480000     -73.55410000
C      -46.03670000     -33.82440000     -73.14290000
C      -45.63640000     -32.56700000     -72.78350000
C      -44.33030000     -32.10960000     -72.87810000
C      -43.31720000     -33.03680000     -73.22110000
C      -43.66590000     -34.34110000     -73.67790000
H      -45.33700000     -35.71410000     -73.76880000
H      -46.34660000     -31.83940000     -72.38050000
H      -42.27750000     -32.60890000     -73.28830000
H      -42.93350000     -34.98820000     -74.04130000
C      -44.03310000     -30.59350000     -72.78560000
H      -44.36590000     -30.08150000     -73.69290000
H      -42.92710000     -30.51560000     -72.57970000
C      -47.49400000     -34.20530000     -73.18280000
H      -47.68660000     -34.61590000     -74.20090000
H      -47.62070000     -35.15750000     -72.64640000
S      -44.94730000     -29.69540000     -71.39140000
S      -48.70850000     -32.96680000     -72.54410000
C      -44.11290000     -30.36830000     -69.88710000
H      -43.05370000     -30.65350000     -70.20450000
H      -44.00900000     -29.50180000     -69.16850000
C      -48.89990000     -33.68240000     -70.75250000
H      -49.21060000     -34.68400000     -70.88430000
H      -49.74210000     -33.18860000     -70.26360000
C      -47.62070000     -33.56230000     -69.92410000
H      -47.36180000     -32.49630000     -70.06300000
H      -47.95960000     -33.67410000     -68.87690000
C      -44.90260000     -31.51960000     -69.25990000
H      -45.96440000     -31.45420000     -69.53510000
H      -44.72750000     -31.48230000     -68.18580000
C      -44.33770000     -32.87720000     -69.65810000
C      -42.98910000     -33.15310000     -69.74240000
C      -45.05840000     -34.11250000     -69.98110000
H      -42.27130000     -32.35540000     -69.43960000
C      -44.24680000     -35.17620000     -70.11840000
C      -46.44010000     -34.46840000     -70.17990000
C      -46.63110000     -35.78840000     -70.46170000
S      -42.54070000     -34.79830000     -70.02520000
S      -45.12330000     -36.65410000     -70.54570000
H      -47.61130000     -36.31970000     -70.52960000
