40
Properties=species:S:1:pos:R:3 #=T CELL(abcABC):=T 1.889726e+02=T 90.00000=T Traj:=T positionsangstrom=T Step:=T 0=T Bead:=T pbc="F F F"
C      -45.38740000     -34.72250000     -74.00020000
C      -46.27820000     -33.74660000     -73.49470000
C      -45.72410000     -32.62250000     -72.89630000
C      -44.33580000     -32.37240000     -72.76010000
C      -43.52170000     -33.35940000     -73.30620000
C      -44.02490000     -34.55670000     -73.82730000
H      -45.63880000     -35.63930000     -74.51970000
H      -46.38260000     -31.98080000     -72.38670000
H      -42.42890000     -33.28610000     -73.18120000
H      -43.32560000     -35.28890000     -74.23290000
C      -43.81000000     -31.10990000     -72.15890000
H      -43.43620000     -30.48430000     -72.95860000
H      -42.98100000     -31.48360000     -71.46240000
C      -47.74410000     -34.12320000     -73.57930000
H      -48.12360000     -34.00930000     -74.58620000
H      -47.84580000     -35.14860000     -73.30900000
S      -44.86480000     -29.96930000     -71.17290000
S      -48.86950000     -33.03380000     -72.52650000
C      -44.38010000     -30.30330000     -69.44270000
H      -43.25820000     -30.42280000     -69.42290000
H      -44.67090000     -29.41930000     -68.92540000
C      -48.81440000     -33.79550000     -70.81710000
H      -49.12870000     -34.86530000     -70.85440000
H      -49.62030000     -33.24460000     -70.30920000
C      -47.55930000     -33.57020000     -69.92600000
H      -47.17480000     -32.56750000     -70.05410000
H      -47.89660000     -33.64700000     -68.89670000
C      -44.97440000     -31.55300000     -68.74470000
H      -46.13770000     -31.61780000     -68.71620000
H      -44.54910000     -31.58500000     -67.74460000
C      -44.37430000     -32.81680000     -69.31720000
C      -43.00980000     -32.87130000     -69.52340000
C      -44.98110000     -34.07130000     -69.77980000
H      -42.23820000     -32.25800000     -69.10220000
C      -44.03020000     -34.99000000     -70.21200000
C      -46.37800000     -34.49470000     -70.14980000
C      -46.38820000     -35.72570000     -70.62580000
S      -42.42620000     -34.36860000     -70.17840000
S      -44.79310000     -36.42240000     -70.92820000
H      -47.20690000     -36.18810000     -71.06340000
