40
Properties=species:S:1:pos:R:3 #=T CELL(abcABC):=T 1.889726e+02=T 90.00000=T Traj:=T positionsangstrom=T Step:=T 0=T Bead:=T pbc="F F F"
C      -45.26770000     -34.55140000     -73.29090000
C      -46.20760000     -33.47600000     -73.30210000
C      -45.74440000     -32.18830000     -73.03730000
C      -44.36100000     -31.83860000     -73.14660000
C      -43.46510000     -32.89470000     -73.36310000
C      -43.91630000     -34.23560000     -73.40120000
H      -45.72860000     -35.59550000     -73.27760000
H      -46.54150000     -31.40680000     -73.02650000
H      -42.46550000     -32.55270000     -73.58020000
H      -43.17540000     -35.06210000     -73.42790000
C      -43.96510000     -30.42580000     -73.07350000
H      -44.26980000     -29.93620000     -74.00350000
H      -42.89560000     -30.21760000     -72.94990000
C      -47.68390000     -33.74310000     -73.65540000
H      -47.89580000     -33.37490000     -74.68270000
H      -47.88120000     -34.82600000     -73.84170000
S      -44.76200000     -29.57090000     -71.67580000
S      -48.97150000     -33.08010000     -72.56360000
C      -43.95380000     -30.39520000     -70.21260000
H      -42.93330000     -30.67960000     -70.41260000
H      -43.92860000     -29.58470000     -69.42510000
C      -48.74010000     -33.92330000     -70.99580000
H      -48.66740000     -35.04680000     -71.16800000
H      -49.68930000     -33.83020000     -70.47470000
C      -47.59750000     -33.61470000     -70.02840000
H      -47.24360000     -32.52610000     -70.17620000
H      -48.02160000     -33.60200000     -69.01820000
C      -44.71230000     -31.55370000     -69.61250000
H      -45.67810000     -31.47060000     -69.97390000
H      -44.68020000     -31.36250000     -68.50140000
C      -44.23690000     -33.00380000     -69.80560000
C      -42.89820000     -33.25130000     -69.83810000
C      -45.04100000     -34.21710000     -69.81450000
H      -42.07980000     -32.62050000     -69.61120000
C      -44.16360000     -35.38840000     -69.98250000
C      -46.42160000     -34.63230000     -69.94440000
C      -46.63950000     -35.99280000     -69.88320000
S      -42.41600000     -34.95430000     -69.91970000
S      -45.08800000     -36.83540000     -69.78110000
H      -47.58670000     -36.49860000     -69.95730000
