40
Properties=species:S:1:pos:R:3 #=T CELL(abcABC):=T 1.889726e+02=T 90.00000=T Traj:=T positionsangstrom=T Step:=T 0=T Bead:=T pbc="F F F"
C      -46.92910000     -34.76870000     -69.27330000
C      -47.44830000     -34.74380000     -70.59930000
C      -46.65010000     -35.14930000     -71.68250000
C      -45.35260000     -35.56600000     -71.43950000
C      -44.85510000     -35.59710000     -70.09840000
C      -45.64000000     -35.24300000     -69.02790000
H      -47.41720000     -34.33600000     -68.46370000
H      -47.12540000     -35.15020000     -72.66150000
H      -43.86550000     -36.03640000     -69.85960000
H      -45.27780000     -35.14550000     -67.97960000
C      -44.33140000     -35.84700000     -72.46490000
H      -43.86470000     -36.81540000     -72.25510000
H      -43.57100000     -35.17180000     -72.27020000
C      -48.79820000     -34.05230000     -70.78000000
H      -49.15080000     -34.02650000     -71.81570000
H      -49.42600000     -34.68960000     -70.16290000
S      -44.73160000     -35.78090000     -74.22570000
S      -48.98050000     -32.38090000     -70.04920000
C      -43.99320000     -34.17740000     -74.78940000
H      -42.86790000     -34.19430000     -74.83200000
H      -44.29940000     -33.97940000     -75.80010000
C      -48.12510000     -31.15980000     -71.34160000
H      -47.94180000     -30.32730000     -70.73380000
H      -48.96910000     -30.89540000     -72.03200000
C      -46.85520000     -31.60850000     -72.04100000
H      -47.06650000     -32.52000000     -72.56440000
H      -46.61920000     -30.79170000     -72.78270000
C      -44.45370000     -33.04530000     -73.92670000
H      -45.50910000     -33.11140000     -73.66880000
H      -44.37780000     -32.09260000     -74.45220000
C      -43.73480000     -32.82890000     -72.67250000
C      -42.38770000     -33.03290000     -72.46060000
C      -44.35780000     -32.26630000     -71.50050000
H      -41.76890000     -33.65260000     -73.06290000
C      -43.42260000     -32.03350000     -70.47180000
C      -45.66310000     -31.75290000     -71.11400000
C      -45.69030000     -31.32500000     -69.78970000
S      -41.86340000     -32.66360000     -70.80890000
S      -44.15200000     -31.36150000     -68.97570000
H      -46.51890000     -30.90440000     -69.20420000
