40
Properties=species:S:1:pos:R:3 #=T CELL(abcABC):=T 1.889726e+02=T 90.00000=T Traj:=T positionsangstrom=T Step:=T 0=T Bead:=T pbc="F F F"
C      -44.19230000     -35.57690000     -67.73050000
C      -45.14150000     -34.62300000     -68.12440000
C      -45.98870000     -34.96230000     -69.15310000
C      -45.84260000     -36.23190000     -69.85900000
C      -44.78870000     -37.04970000     -69.57100000
C      -43.97750000     -36.75150000     -68.47440000
H      -43.51340000     -35.32870000     -66.96100000
H      -46.84300000     -34.29640000     -69.46190000
H      -44.68720000     -38.00400000     -70.05120000
H      -43.10290000     -37.47750000     -68.42910000
C      -46.87930000     -36.63330000     -70.79200000
H      -47.82250000     -36.25430000     -70.41280000
H      -47.00280000     -37.68610000     -70.90860000
C      -45.16550000     -33.32550000     -67.41080000
H      -46.10820000     -32.78440000     -67.71020000
H      -45.19020000     -33.49170000     -66.35320000
S      -46.85740000     -35.85540000     -72.50640000
S      -43.75490000     -32.19190000     -67.74270000
C      -45.05520000     -35.87380000     -73.06940000
H      -44.39260000     -36.65450000     -72.63190000
H      -45.21320000     -36.11300000     -74.11390000
C      -44.51210000     -31.28130000     -69.12310000
H      -44.02980000     -30.21390000     -69.11450000
H      -45.58200000     -31.13440000     -68.90230000
C      -44.32920000     -32.03760000     -70.44270000
H      -43.21780000     -32.11580000     -70.48300000
H      -44.78000000     -33.01350000     -70.23720000
C      -44.43920000     -34.52060000     -72.79350000
H      -43.35880000     -34.57300000     -72.93990000
H      -44.52730000     -34.34710000     -71.70140000
C      -44.97250000     -33.32690000     -73.54960000
C      -45.16700000     -33.37990000     -74.93030000
C      -45.19630000     -32.01680000     -73.00210000
H      -45.25770000     -34.26270000     -75.52910000
C      -45.76080000     -31.11430000     -73.85930000
C      -45.06960000     -31.42690000     -71.63950000
C      -45.54190000     -30.14130000     -71.54970000
S      -45.95430000     -31.83920000     -75.44450000
S      -46.14160000     -29.60040000     -73.14090000
H      -45.64280000     -29.57970000     -70.67380000
