40
Properties=species:S:1:pos:R:3 #=T CELL(abcABC):=T 1.889726e+02=T 90.00000=T Traj:=T positionsangstrom=T Step:=T 0=T Bead:=T pbc="F F F"
C      -45.04880000     -32.09120000     -67.42540000
C      -45.09920000     -31.29710000     -68.59370000
C      -44.09750000     -31.48770000     -69.57460000
C      -43.06830000     -32.33570000     -69.37780000
C      -42.89730000     -33.01960000     -68.19040000
C      -43.86090000     -32.83480000     -67.22790000
H      -45.76540000     -31.83660000     -66.58820000
H      -44.13530000     -30.82560000     -70.46910000
H      -42.08220000     -33.73630000     -68.06250000
H      -43.82890000     -33.40920000     -66.33940000
C      -41.93450000     -32.50470000     -70.46030000
H      -41.10290000     -31.93390000     -70.11540000
H      -42.23580000     -31.97560000     -71.36420000
C      -46.26840000     -30.35800000     -68.77470000
H      -46.95790000     -30.21810000     -67.98750000
H      -45.98930000     -29.33960000     -69.12470000
S      -41.32510000     -34.20990000     -70.77060000
S      -47.13110000     -31.07060000     -70.23410000
C      -42.47530000     -34.89410000     -72.04600000
H      -42.32000000     -34.22720000     -72.91650000
H      -42.09540000     -35.90410000     -72.15950000
C      -47.75790000     -32.64280000     -69.63020000
H      -48.87540000     -32.66050000     -69.67130000
H      -47.44640000     -32.78210000     -68.58050000
C      -47.10830000     -33.85990000     -70.30030000
H      -46.01730000     -33.84390000     -70.07490000
H      -47.52210000     -34.81930000     -69.76610000
C      -43.96450000     -34.90470000     -71.72600000
H      -44.13870000     -33.99170000     -71.10460000
H      -44.08980000     -35.78860000     -71.10180000
C      -44.89640000     -35.01180000     -72.85680000
C      -44.60080000     -35.45730000     -74.11380000
C      -46.30530000     -34.51230000     -72.82280000
H      -43.63520000     -35.87830000     -74.38690000
C      -46.87550000     -34.46490000     -74.09320000
C      -47.22870000     -33.97260000     -71.79670000
C      -48.40710000     -33.49540000     -72.40200000
S      -45.96180000     -35.32550000     -75.24520000
S      -48.42830000     -33.71820000     -74.11080000
H      -49.13260000     -32.89080000     -71.87920000
