40
Properties=species:S:1:pos:R:3 #=T CELL(abcABC):=T 1.889726e+02=T 90.00000=T Traj:=T positionsangstrom=T Step:=T 0=T Bead:=T pbc="F F F"
C      -45.33840000     -34.39050000     -73.65310000
C      -46.39440000     -33.40750000     -73.60360000
C      -46.09900000     -32.03410000     -73.30450000
C      -44.74680000     -31.68770000     -72.97580000
C      -43.76850000     -32.63950000     -73.13270000
C      -44.05090000     -33.97390000     -73.39360000
H      -45.51850000     -35.39170000     -73.93440000
H      -46.82670000     -31.24930000     -73.08840000
H      -42.76790000     -32.24650000     -72.90420000
H      -43.30410000     -34.69220000     -73.38010000
C      -44.44540000     -30.30520000     -72.52420000
H      -44.89380000     -29.60130000     -73.27160000
H      -43.35290000     -30.32660000     -72.48180000
C      -47.88000000     -33.77790000     -73.88470000
H      -48.18810000     -33.10190000     -74.72180000
H      -48.14090000     -34.84240000     -74.17660000
S      -45.32110000     -29.74140000     -71.00940000
S      -49.09680000     -33.33150000     -72.52650000
C      -44.15050000     -30.54790000     -69.70770000
H      -43.23190000     -30.86430000     -70.20920000
H      -43.94750000     -29.71090000     -68.95820000
C      -48.56310000     -34.07640000     -70.96630000
H      -48.58380000     -35.18000000     -70.98800000
H      -49.24800000     -33.72880000     -70.18950000
C      -47.16380000     -33.56630000     -70.53830000
H      -46.88600000     -32.72810000     -71.14070000
H      -47.28510000     -33.22570000     -69.51030000
C      -44.82830000     -31.77520000     -69.05300000
H      -45.95010000     -31.84730000     -69.28160000
H      -44.91970000     -31.64380000     -67.98200000
C      -44.13730000     -33.03420000     -69.37580000
C      -42.85580000     -33.35900000     -69.02720000
C      -44.70920000     -34.21140000     -70.00210000
H      -42.17980000     -32.61650000     -68.61760000
C      -43.82400000     -35.33120000     -70.06880000
C      -46.01960000     -34.51560000     -70.59160000
C      -46.06270000     -35.83300000     -71.00960000
S      -42.31160000     -35.03110000     -69.34230000
S      -44.47620000     -36.68240000     -70.94440000
H      -46.88870000     -36.43370000     -71.35100000
