40
Properties=species:S:1:pos:R:3 #=T CELL(abcABC):=T 1.889726e+02=T 90.00000=T Traj:=T positionsangstrom=T Step:=T 0=T Bead:=T pbc="F F F"
C      -45.38220000     -34.18710000     -73.76140000
C      -46.42940000     -33.29390000     -73.77370000
C      -46.15480000     -31.93410000     -73.36990000
C      -44.81970000     -31.60040000     -73.08150000
C      -43.76810000     -32.56560000     -73.02100000
C      -44.07760000     -33.86720000     -73.36080000
H      -45.62610000     -35.21260000     -74.03230000
H      -46.89290000     -31.12370000     -73.40340000
H      -42.70140000     -32.21340000     -72.80720000
H      -43.32370000     -34.58030000     -73.46870000
C      -44.55330000     -30.13980000     -72.68660000
H      -44.97790000     -29.34170000     -73.30260000
H      -43.53570000     -29.86010000     -72.65820000
C      -47.79090000     -33.82040000     -73.98350000
H      -48.19820000     -33.60990000     -74.94280000
H      -47.60340000     -34.95050000     -73.94710000
S      -45.31400000     -29.77470000     -70.99640000
S      -49.01900000     -33.30690000     -72.76660000
C      -44.17130000     -30.57430000     -69.74030000
H      -43.27170000     -30.75860000     -70.31010000
H      -43.83970000     -29.85270000     -69.00270000
C      -48.43360000     -34.13300000     -71.14710000
H      -48.42020000     -35.18390000     -71.34460000
H      -49.33620000     -33.90240000     -70.51080000
C      -47.13410000     -33.65320000     -70.49840000
H      -46.81690000     -32.71620000     -71.03680000
H      -47.31240000     -33.41310000     -69.41490000
C      -44.91470000     -31.81300000     -68.93280000
H      -45.95380000     -31.75520000     -69.22100000
H      -44.85400000     -31.56850000     -67.85620000
C      -44.21160000     -33.11840000     -69.25050000
C      -42.91820000     -33.38380000     -68.86230000
C      -44.70670000     -34.30070000     -69.92950000
H      -42.35660000     -32.76500000     -68.15590000
C      -43.80650000     -35.39730000     -69.95200000
C      -45.93020000     -34.60280000     -70.53860000
C      -46.00480000     -35.87010000     -71.06670000
S      -42.29320000     -34.98410000     -69.23180000
S      -44.52630000     -36.81030000     -70.74570000
H      -46.75270000     -36.29320000     -71.66880000
