40
Properties=species:S:1:pos:R:3 #=T CELL(abcABC):=T 1.889726e+02=T 90.00000=T Traj:=T positionsangstrom=T Step:=T 0=T Bead:=T pbc="F F F"
C      -48.95290000     -32.37910000     -69.74860000
C      -47.69900000     -31.76250000     -69.67660000
C      -46.76660000     -32.35800000     -68.77930000
C      -47.07020000     -33.57820000     -68.12030000
C      -48.35080000     -34.08170000     -68.18490000
C      -49.34010000     -33.49120000     -68.98760000
H      -49.68220000     -31.99470000     -70.42530000
H      -45.83290000     -31.82120000     -68.67870000
H      -48.59130000     -35.02420000     -67.56330000
H      -50.24760000     -34.02420000     -69.17060000
C      -45.90730000     -34.39700000     -67.51110000
H      -46.23860000     -34.80460000     -66.52620000
H      -45.07250000     -33.67910000     -67.33260000
C      -47.25810000     -30.52220000     -70.44850000
H      -48.13880000     -30.08160000     -70.93300000
H      -46.70890000     -29.78530000     -69.83840000
S      -45.33470000     -35.92150000     -68.46710000
S      -46.06960000     -30.90430000     -71.78160000
C      -44.58990000     -35.19250000     -69.99690000
H      -43.86680000     -34.41870000     -69.62440000
H      -44.13010000     -36.02640000     -70.46800000
C      -44.37790000     -30.78720000     -71.12200000
H      -44.37540000     -30.22070000     -70.14960000
H      -43.78000000     -30.16380000     -71.80680000
C      -43.48900000     -32.12470000     -70.87210000
H      -42.54490000     -31.74470000     -70.56190000
H      -43.98020000     -32.80980000     -70.14200000
C      -45.65280000     -34.64930000     -71.05430000
H      -46.08880000     -33.69040000     -70.72930000
H      -46.48920000     -35.34400000     -71.13600000
C      -45.04380000     -34.61020000     -72.45320000
C      -45.42200000     -35.41910000     -73.46550000
C      -43.96400000     -33.72220000     -72.87080000
H      -46.04000000     -36.19950000     -73.18350000
C      -43.52210000     -33.96260000     -74.17310000
C      -43.19180000     -32.74180000     -72.22380000
C      -42.31490000     -32.13500000     -73.09360000
S      -44.44940000     -35.21270000     -74.94280000
S      -42.35850000     -32.83790000     -74.66920000
H      -41.68810000     -31.31690000     -73.00800000
