40
Properties=species:S:1:pos:R:3 #=T CELL(abcABC):=T 1.889726e+02=T 90.00000=T Traj:=T positionsangstrom=T Step:=T 0=T Bead:=T pbc="F F F"
C      -48.89820000     -32.30730000     -69.64080000
C      -47.63830000     -31.69230000     -69.58540000
C      -46.71740000     -32.33400000     -68.76740000
C      -47.00120000     -33.51810000     -68.05020000
C      -48.37930000     -33.98040000     -68.04370000
C      -49.29110000     -33.36580000     -68.83860000
H      -49.58310000     -32.02530000     -70.44320000
H      -45.72500000     -31.98130000     -68.68750000
H      -48.56390000     -34.85650000     -67.48460000
H      -50.39950000     -33.58170000     -68.76790000
C      -45.85310000     -34.39390000     -67.49850000
H      -46.01330000     -34.75980000     -66.50940000
H      -44.91970000     -33.89630000     -67.54220000
C      -47.39830000     -30.50100000     -70.51110000
H      -48.32820000     -30.14220000     -70.90860000
H      -46.96130000     -29.69270000     -69.94150000
S      -45.42210000     -36.06230000     -68.42300000
S      -46.27280000     -31.10910000     -71.92910000
C      -44.71570000     -35.34990000     -70.07100000
H      -43.85430000     -34.84110000     -69.76140000
H      -44.30900000     -36.15080000     -70.68490000
C      -44.57680000     -30.40120000     -71.46740000
H      -44.70990000     -29.73350000     -70.54890000
H      -44.14570000     -29.84630000     -72.33830000
C      -43.66290000     -31.61730000     -71.17120000
H      -42.70080000     -31.24430000     -70.73780000
H      -44.12810000     -32.22010000     -70.43180000
C      -45.59020000     -34.47530000     -70.88790000
H      -45.73070000     -33.42360000     -70.57330000
H      -46.65890000     -34.82340000     -70.93740000
C      -45.02130000     -34.41020000     -72.33970000
C      -45.31740000     -35.46200000     -73.22610000
C      -43.92430000     -33.57930000     -72.87920000
H      -46.24420000     -36.02360000     -73.20100000
C      -43.48530000     -34.06520000     -74.14640000
C      -43.25690000     -32.37240000     -72.41700000
C      -42.24350000     -32.05590000     -73.30260000
S      -44.34990000     -35.42280000     -74.72030000
S      -42.11610000     -33.12530000     -74.72160000
H      -41.46430000     -31.30870000     -73.16450000
