40
Properties=species:S:1:pos:R:3 #=T CELL(abcABC):=T 1.889726e+02=T 90.00000=T Traj:=T positionsangstrom=T Step:=T 0=T Bead:=T pbc="F F F"
C      -48.89770000     -32.18290000     -69.71460000
C      -47.60060000     -31.80020000     -69.68370000
C      -46.69380000     -32.53820000     -68.94210000
C      -47.09760000     -33.66220000     -68.23120000
C      -48.43800000     -34.10400000     -68.39790000
C      -49.30440000     -33.37100000     -69.09540000
H      -49.58250000     -31.57990000     -70.29800000
H      -45.66730000     -32.23970000     -69.05360000
H      -48.77020000     -35.03890000     -67.93900000
H      -50.30280000     -33.62190000     -69.03460000
C      -46.07880000     -34.38670000     -67.48370000
H      -46.48770000     -34.91420000     -66.66200000
H      -45.32120000     -33.71630000     -67.18410000
C      -47.23130000     -30.55460000     -70.44890000
H      -48.20920000     -30.29390000     -70.92860000
H      -46.97540000     -29.70260000     -69.86520000
S      -45.22510000     -35.86200000     -68.30690000
S      -45.96650000     -30.88620000     -71.75360000
C      -44.55620000     -35.51480000     -69.99150000
H      -43.71500000     -34.84900000     -69.86420000
H      -44.07480000     -36.45600000     -70.23840000
C      -44.38700000     -30.70110000     -70.85760000
H      -44.59810000     -30.47890000     -69.77670000
H      -43.81270000     -29.87440000     -71.26710000
C      -43.63600000     -32.07570000     -70.82920000
H      -42.68990000     -31.85600000     -70.29280000
H      -44.28510000     -32.72730000     -70.20090000
C      -45.59680000     -35.02700000     -71.11680000
H      -46.15660000     -34.12450000     -70.74180000
H      -46.45590000     -35.77170000     -71.16690000
C      -44.99630000     -34.77090000     -72.49060000
C      -45.29660000     -35.55970000     -73.55660000
C      -44.05260000     -33.65070000     -72.86100000
H      -45.91180000     -36.46830000     -73.51960000
C      -43.54620000     -33.93660000     -74.14200000
C      -43.39970000     -32.56220000     -72.22280000
C      -42.51190000     -31.93010000     -73.04110000
S      -44.50830000     -35.10250000     -75.06080000
S      -42.31830000     -32.81470000     -74.63130000
H      -41.78520000     -31.21240000     -72.81710000
