40
Properties=species:S:1:pos:R:3 #=T CELL(abcABC):=T 1.889726e+02=T 90.00000=T Traj:=T positionsangstrom=T Step:=T 0=T Bead:=T pbc="F F F"
C      -45.44360000     -35.52180000     -73.89280000
C      -45.87180000     -36.13620000     -72.69010000
C      -47.03710000     -35.75780000     -72.01090000
C      -47.77090000     -34.70000000     -72.57010000
C      -47.27480000     -34.00140000     -73.71690000
C      -46.12620000     -34.39050000     -74.34090000
H      -44.48890000     -35.88990000     -74.45150000
H      -47.37650000     -36.27760000     -71.09720000
H      -47.68110000     -33.06280000     -73.88590000
H      -45.69210000     -33.86550000     -75.19490000
C      -49.11160000     -34.26850000     -72.06040000
H      -49.82030000     -35.13140000     -72.09640000
H      -49.60220000     -33.52570000     -72.61470000
C      -45.05090000     -37.28190000     -72.02450000
H      -45.65820000     -38.21420000     -72.13000000
H      -44.19930000     -37.55480000     -72.70770000
S      -49.10550000     -33.68310000     -70.22850000
S      -44.39670000     -36.87990000     -70.33030000
C      -47.88270000     -32.28390000     -70.30230000
H      -48.06560000     -31.76810000     -71.25310000
H      -48.14790000     -31.42540000     -69.56580000
C      -43.58760000     -35.32830000     -70.78420000
H      -44.07420000     -34.90610000     -71.61230000
H      -42.60970000     -35.53030000     -71.12410000
C      -43.62150000     -34.24700000     -69.67730000
H      -44.63480000     -34.24590000     -69.38050000
H      -42.99420000     -34.49220000     -68.75170000
C      -46.50500000     -32.73750000     -70.07180000
H      -46.32940000     -33.60860000     -70.65680000
H      -46.43370000     -32.98810000     -69.03160000
C      -45.53600000     -31.58320000     -70.43660000
C      -45.84180000     -30.26800000     -70.81340000
C      -44.05660000     -31.81270000     -70.51520000
H      -46.82090000     -29.79990000     -70.92330000
C      -43.34370000     -30.70490000     -71.07410000
C      -43.16370000     -32.90150000     -70.28780000
C      -41.89250000     -32.65180000     -70.70790000
S      -44.40320000     -29.36120000     -71.43960000
S      -41.65860000     -30.99860000     -71.35870000
H      -41.08620000     -33.41460000     -70.63510000
