40
Properties=species:S:1:pos:R:3 #=T CELL(abcABC):=T 1.889726e+02=T 90.00000=T Traj:=T positionsangstrom=T Step:=T 0=T Bead:=T pbc="F F F"
C      -49.20420000     -31.60060000     -69.34010000
C      -47.88120000     -31.12540000     -69.52320000
C      -46.80680000     -31.83020000     -68.96910000
C      -46.89260000     -33.05080000     -68.24500000
C      -48.20650000     -33.39730000     -67.92660000
C      -49.32780000     -32.66910000     -68.44090000
H      -50.07660000     -31.02910000     -69.65610000
H      -45.74090000     -31.40410000     -69.26030000
H      -48.44610000     -34.17640000     -67.17000000
H      -50.30210000     -33.03430000     -68.16480000
C      -45.65950000     -33.74970000     -67.66480000
H      -45.78550000     -33.84480000     -66.59820000
H      -44.66990000     -33.36450000     -67.94390000
C      -47.56830000     -30.08180000     -70.56540000
H      -48.50490000     -29.70030000     -71.02650000
H      -46.97350000     -29.24000000     -70.10100000
S      -45.45050000     -35.55740000     -68.14620000
S      -46.54120000     -30.70400000     -71.97000000
C      -44.50400000     -35.35340000     -69.71570000
H      -43.76200000     -34.53850000     -69.77230000
H      -43.92570000     -36.26300000     -69.84400000
C      -44.69520000     -30.63970000     -71.60800000
H      -44.62690000     -30.02450000     -70.73690000
H      -44.32640000     -30.08870000     -72.43830000
C      -44.01300000     -31.99830000     -71.50400000
H      -43.06010000     -31.91410000     -70.99040000
H      -44.53680000     -32.62000000     -70.75290000
C      -45.39590000     -35.17450000     -70.94250000
H      -45.96520000     -34.22490000     -70.80170000
H      -46.22360000     -35.91010000     -70.98780000
C      -44.58970000     -35.26770000     -72.22730000
C      -44.47260000     -36.47700000     -72.92720000
C      -43.93600000     -34.18110000     -72.92770000
H      -44.97950000     -37.41660000     -72.81260000
C      -43.30170000     -34.59140000     -74.14780000
C      -43.65120000     -32.76080000     -72.75430000
C      -43.02420000     -32.06500000     -73.80530000
S      -43.56230000     -36.25080000     -74.46640000
S      -42.54490000     -33.18070000     -75.06230000
H      -42.61260000     -31.02530000     -73.69390000
