40
Properties=species:S:1:pos:R:3 #=T CELL(abcABC):=T 1.889726e+02=T 90.00000=T Traj:=T positionsangstrom=T Step:=T 0=T Bead:=T pbc="F F F"
C      -48.32860000     -31.84820000     -69.65030000
C      -47.09140000     -31.25040000     -69.45090000
C      -46.14560000     -31.85380000     -68.59260000
C      -46.32770000     -33.15530000     -68.15270000
C      -47.56110000     -33.78050000     -68.28670000
C      -48.49910000     -33.15510000     -69.08320000
H      -48.95960000     -31.32180000     -70.30000000
H      -45.20560000     -31.35380000     -68.41940000
H      -47.76360000     -34.77520000     -67.83740000
H      -49.52160000     -33.50220000     -69.15140000
C      -45.25940000     -33.88480000     -67.34630000
H      -45.56040000     -33.92590000     -66.29360000
H      -44.27440000     -33.35620000     -67.37540000
C      -46.70530000     -29.97120000     -70.17540000
H      -47.11770000     -29.12720000     -69.61170000
H      -45.60560000     -29.90320000     -70.08550000
S      -44.85850000     -35.57380000     -67.88240000
S      -47.27100000     -29.69060000     -71.84730000
C      -44.40720000     -35.04370000     -69.63000000
H      -44.13550000     -33.96740000     -69.55700000
H      -43.58440000     -35.70140000     -69.89110000
C      -46.23670000     -30.85070000     -72.98560000
H      -45.52440000     -30.25500000     -73.56610000
H      -47.00910000     -31.13140000     -73.67110000
C      -45.67990000     -32.10920000     -72.36350000
H      -45.34420000     -31.96240000     -71.35890000
H      -46.48170000     -32.88150000     -72.26660000
C      -45.43590000     -35.11660000     -70.71480000
H      -46.17290000     -34.29400000     -70.68420000
H      -45.93030000     -36.03070000     -70.44040000
C      -44.66860000     -35.25610000     -72.04210000
C      -43.89270000     -36.38790000     -72.26630000
C      -44.42720000     -34.29510000     -73.07960000
H      -43.94670000     -37.38500000     -71.74840000
C      -43.50090000     -34.64730000     -74.01800000
C      -44.75410000     -32.84050000     -73.32070000
C      -44.13060000     -32.29230000     -74.47060000
S      -42.88430000     -36.24930000     -73.65050000
S      -43.05650000     -33.46080000     -75.23170000
H      -44.22240000     -31.24860000     -74.82420000
