40
Properties=species:S:1:pos:R:3 #=T CELL(abcABC):=T 1.889726e+02=T 90.00000=T Traj:=T positionsangstrom=T Step:=T 0=T Bead:=T pbc="F F F"
C      -44.36360000     -31.72860000     -67.64990000
C      -44.50010000     -31.19380000     -68.95620000
C      -43.45780000     -31.56670000     -69.82070000
C      -42.46070000     -32.43230000     -69.44870000
C      -42.37320000     -32.94950000     -68.18500000
C      -43.34470000     -32.59330000     -67.22340000
H      -45.23540000     -31.76590000     -66.97960000
H      -43.41030000     -31.15260000     -70.88820000
H      -41.70080000     -33.72560000     -67.83700000
H      -43.40250000     -32.98790000     -66.20320000
C      -41.44680000     -32.94350000     -70.45580000
H      -40.44360000     -32.88090000     -70.04460000
H      -41.46460000     -32.33770000     -71.39900000
C      -45.60670000     -30.21370000     -69.23130000
H      -46.22900000     -30.17650000     -68.30550000
H      -45.30460000     -29.23010000     -69.61100000
S      -41.59230000     -34.76280000     -70.70520000
S      -46.68260000     -30.81550000     -70.59700000
C      -42.83280000     -34.81790000     -72.06000000
H      -42.52860000     -34.07060000     -72.80930000
H      -42.86560000     -35.78310000     -72.42440000
C      -47.77650000     -32.18790000     -69.70180000
H      -48.78290000     -31.97610000     -69.96390000
H      -47.86440000     -32.11380000     -68.60590000
C      -47.25970000     -33.57600000     -70.15920000
H      -46.22650000     -33.78110000     -70.02910000
H      -47.76340000     -34.30700000     -69.57250000
C      -44.19570000     -34.28890000     -71.69990000
H      -44.23200000     -33.25550000     -71.53790000
H      -44.54360000     -34.70340000     -70.78680000
C      -45.21360000     -34.53390000     -72.81200000
C      -44.83270000     -35.07260000     -74.05450000
C      -46.64980000     -34.37310000     -72.69840000
H      -43.85870000     -35.46590000     -74.34530000
C      -47.29770000     -34.68600000     -73.84180000
C      -47.57110000     -33.89040000     -71.61950000
C      -48.78590000     -33.93700000     -72.06500000
S      -46.30630000     -35.21350000     -75.15680000
S      -49.04330000     -34.41570000     -73.76460000
H      -49.70060000     -33.97500000     -71.49100000
