40
Properties=species:S:1:pos:R:3 #=T CELL(abcABC):=T 1.889726e+02=T 90.00000=T Traj:=T positionsangstrom=T Step:=T 0=T Bead:=T pbc="F F F"
C      -41.28740000     -33.37720000     -70.36910000
C      -41.93270000     -33.89920000     -71.46710000
C      -42.61870000     -33.00720000     -72.37490000
C      -42.44970000     -31.63760000     -72.22000000
C      -41.72130000     -31.11610000     -71.13150000
C      -41.18690000     -32.00270000     -70.18260000
H      -40.68280000     -34.07760000     -69.66450000
H      -43.22710000     -33.50450000     -73.16020000
H      -41.66150000     -30.07070000     -71.01720000
H      -40.65480000     -31.64290000     -69.29360000
C      -42.98790000     -30.63880000     -73.20280000
H      -43.18050000     -30.94960000     -74.24930000
H      -42.30900000     -29.82080000     -73.35470000
C      -41.86720000     -35.33780000     -71.59920000
H      -41.70010000     -35.69610000     -72.69100000
H      -41.12000000     -35.71200000     -70.97720000
S      -44.54960000     -29.90500000     -72.43490000
S      -43.53180000     -36.22960000     -71.22210000
C      -45.71200000     -31.30100000     -72.19470000
H      -46.14430000     -31.58690000     -73.10070000
H      -45.09870000     -32.19240000     -72.14110000
C      -44.12020000     -35.37970000     -69.68230000
H      -43.19160000     -34.92900000     -69.27910000
H      -44.56740000     -36.17120000     -69.02170000
C      -45.08210000     -34.25540000     -69.88600000
H      -45.44810000     -33.77160000     -69.01680000
H      -44.54300000     -33.37740000     -70.33710000
C      -46.63000000     -31.19230000     -70.95330000
H      -47.10240000     -30.22710000     -70.99610000
H      -45.97310000     -31.26610000     -70.06840000
C      -47.68190000     -32.27430000     -70.96110000
C      -49.00520000     -31.96980000     -71.13450000
C      -47.40660000     -33.69440000     -70.95700000
H      -49.45010000     -30.98220000     -70.91750000
C      -48.62020000     -34.42240000     -71.28370000
C      -46.35020000     -34.56680000     -70.60490000
C      -46.73360000     -35.89600000     -70.66020000
S      -50.05510000     -33.37540000     -71.32450000
S      -48.37530000     -36.11060000     -71.27050000
H      -45.99790000     -36.68060000     -70.48380000
