40
Properties=species:S:1:pos:R:3 #=T CELL(abcABC):=T 1.889726e+02=T 90.00000=T Traj:=T positionsangstrom=T Step:=T 0=T Bead:=T pbc="F F F"
C      -44.45810000     -31.16150000     -67.85850000
C      -44.34790000     -30.85850000     -69.23620000
C      -43.28930000     -31.41490000     -69.96080000
C      -42.47550000     -32.34570000     -69.36210000
C      -42.53960000     -32.56790000     -68.00550000
C      -43.58530000     -31.99370000     -67.23860000
H      -45.21030000     -30.72670000     -67.25830000
H      -43.01880000     -31.06250000     -70.95390000
H      -41.85320000     -33.25330000     -67.45950000
H      -43.68540000     -32.13760000     -66.21440000
C      -41.40680000     -32.96220000     -70.28020000
H      -40.41180000     -32.98080000     -69.86700000
H      -41.37220000     -32.48800000     -71.23000000
C      -45.27800000     -29.82420000     -69.81980000
H      -45.29470000     -28.87340000     -69.22920000
H      -44.92640000     -29.47970000     -70.74050000
S      -41.89410000     -34.73030000     -70.59440000
S      -47.13260000     -30.25350000     -70.07050000
C      -43.24500000     -34.55350000     -71.81410000
H      -43.65320000     -33.60570000     -71.56440000
H      -42.78070000     -34.51490000     -72.79610000
C      -46.96590000     -32.08900000     -69.77320000
H      -48.01570000     -32.42850000     -69.71040000
H      -46.36990000     -32.21030000     -68.85550000
C      -46.28310000     -33.00370000     -70.86280000
H      -45.46660000     -32.44740000     -71.31560000
H      -45.81740000     -33.78280000     -70.17250000
C      -44.21960000     -35.73670000     -71.74030000
H      -44.56600000     -35.85090000     -70.69470000
H      -43.70220000     -36.65400000     -72.03580000
C      -45.33520000     -35.59350000     -72.74440000
C      -45.39340000     -36.50910000     -73.73580000
C      -46.47960000     -34.65750000     -72.83350000
H      -44.64130000     -37.28700000     -73.81310000
C      -47.40100000     -34.99490000     -73.90470000
C      -46.98730000     -33.55390000     -72.06760000
C      -48.23510000     -33.05440000     -72.42610000
S      -46.74610000     -36.31080000     -74.86970000
S      -48.80640000     -34.00860000     -73.84540000
H      -48.74750000     -32.17810000     -72.15000000
