40
Properties=species:S:1:pos:R:3 #=T CELL(abcABC):=T 1.889726e+02=T 90.00000=T Traj:=T positionsangstrom=T Step:=T 0=T Bead:=T pbc="F F F"
C      -44.55210000     -31.11710000     -67.91340000
C      -44.34510000     -30.70310000     -69.24840000
C      -43.27690000     -31.27420000     -69.97610000
C      -42.51070000     -32.29550000     -69.42070000
C      -42.79890000     -32.72280000     -68.12740000
C      -43.71210000     -32.09300000     -67.32470000
H      -45.24940000     -30.65220000     -67.21720000
H      -43.09920000     -31.02580000     -70.98820000
H      -42.10650000     -33.40590000     -67.69350000
H      -43.83720000     -32.28660000     -66.30970000
C      -41.44260000     -32.98040000     -70.16400000
H      -40.49940000     -32.92550000     -69.58620000
H      -41.24030000     -32.61340000     -71.15860000
C      -45.23560000     -29.69310000     -69.84850000
H      -45.43200000     -28.78020000     -69.19220000
H      -44.81670000     -29.41170000     -70.82340000
S      -41.92120000     -34.75260000     -70.40620000
S      -46.91060000     -30.38210000     -70.16430000
C      -43.27630000     -34.49260000     -71.65680000
H      -43.64150000     -33.51760000     -71.41630000
H      -42.81510000     -34.43710000     -72.68900000
C      -46.93630000     -32.14380000     -69.92110000
H      -47.92710000     -32.44700000     -69.67660000
H      -46.50340000     -32.32390000     -68.97750000
C      -46.16380000     -32.96910000     -70.90680000
H      -45.44950000     -32.32390000     -71.40480000
H      -45.70010000     -33.78420000     -70.40790000
C      -44.36880000     -35.59220000     -71.59940000
H      -45.04890000     -35.53920000     -70.74640000
H      -43.79310000     -36.55800000     -71.51730000
C      -45.31920000     -35.54300000     -72.81760000
C      -45.36290000     -36.43030000     -73.85050000
C      -46.49330000     -34.73460000     -72.73760000
H      -44.61540000     -37.16120000     -74.14410000
C      -47.41820000     -35.13920000     -73.75320000
C      -46.93880000     -33.57210000     -72.07200000
C      -48.11680000     -33.05750000     -72.52600000
S      -46.81090000     -36.36940000     -74.87300000
S      -48.77970000     -33.93910000     -73.85560000
H      -48.66450000     -32.14410000     -72.30180000
