40
Properties=species:S:1:pos:R:3 #=T CELL(abcABC):=T 1.889726e+02=T 90.00000=T Traj:=T positionsangstrom=T Step:=T 0=T Bead:=T pbc="F F F"
C      -44.29050000     -30.69150000     -67.98640000
C      -44.26410000     -30.52830000     -69.31840000
C      -43.36810000     -31.25570000     -70.14350000
C      -42.52560000     -32.18230000     -69.47360000
C      -42.53180000     -32.27980000     -68.06880000
C      -43.44180000     -31.53660000     -67.32950000
H      -44.94360000     -30.03220000     -67.40080000
H      -43.46170000     -31.14790000     -71.22570000
H      -41.98970000     -32.99770000     -67.56130000
H      -43.48450000     -31.57980000     -66.26730000
C      -41.45150000     -32.92950000     -70.11730000
H      -40.64190000     -33.13640000     -69.41530000
H      -41.07500000     -32.52250000     -70.98280000
C      -45.23360000     -29.65000000     -70.06730000
H      -45.88400000     -29.16590000     -69.28760000
H      -44.78430000     -28.94740000     -70.76840000
S      -41.92970000     -34.68870000     -70.54850000
S      -46.26460000     -30.57950000     -71.22050000
C      -43.33840000     -34.45200000     -71.77920000
H      -43.83310000     -33.45700000     -71.61280000
H      -42.98360000     -34.46230000     -72.79960000
C      -46.94190000     -31.84100000     -69.95930000
H      -48.01140000     -31.71520000     -69.82430000
H      -46.46510000     -31.65640000     -68.97070000
C      -46.50070000     -33.16960000     -70.50130000
H      -45.42100000     -33.21830000     -70.73660000
H      -46.59750000     -33.93860000     -69.64140000
C      -44.33750000     -35.64360000     -71.51240000
H      -44.60830000     -35.72920000     -70.47270000
H      -43.69510000     -36.56210000     -71.71250000
C      -45.54420000     -35.71840000     -72.41570000
C      -45.58090000     -36.62780000     -73.45100000
C      -46.72800000     -34.85810000     -72.46510000
H      -44.71060000     -37.23310000     -73.65540000
C      -47.58540000     -35.21010000     -73.56310000
C      -47.18600000     -33.69480000     -71.74770000
C      -48.30420000     -33.15930000     -72.31720000
S      -46.91910000     -36.46040000     -74.54250000
S      -48.94690000     -34.18130000     -73.67190000
H      -48.81630000     -32.39700000     -71.78060000
