40
Properties=species:S:1:pos:R:3 #=T CELL(abcABC):=T 1.889726e+02=T 90.00000=T Traj:=T positionsangstrom=T Step:=T 0=T Bead:=T pbc="F F F"
C      -43.99850000     -29.85550000     -71.57420000
C      -43.61480000     -30.74840000     -72.56400000
C      -42.62250000     -31.70110000     -72.17150000
C      -42.20250000     -31.87910000     -70.85450000
C      -42.67510000     -31.02560000     -69.82990000
C      -43.61240000     -30.08490000     -70.20940000
H      -44.82230000     -29.18720000     -71.76920000
H      -42.23150000     -32.37800000     -72.88670000
H      -42.39900000     -31.20930000     -68.73780000
H      -43.95540000     -29.31970000     -69.44320000
C      -41.09610000     -32.89450000     -70.53180000
H      -40.57360000     -32.68090000     -69.60310000
H      -40.37540000     -32.89910000     -71.31240000
C      -44.11020000     -30.65050000     -73.94510000
H      -44.87050000     -29.82380000     -73.99790000
H      -43.37050000     -30.49170000     -74.68800000
S      -41.76240000     -34.59310000     -70.64420000
S      -44.90330000     -32.20230000     -74.62300000
C      -43.42210000     -34.63350000     -69.74130000
H      -43.54320000     -35.61450000     -69.30850000
H      -43.42650000     -33.90020000     -68.93040000
C      -46.33280000     -32.43290000     -73.48910000
H      -47.25950000     -32.00210000     -73.98560000
H      -45.99320000     -31.93170000     -72.55600000
C      -46.47740000     -33.90970000     -73.29970000
H      -46.66950000     -34.30270000     -74.36890000
H      -45.56760000     -34.38030000     -73.07890000
C      -44.54400000     -34.38270000     -70.70580000
H      -44.44840000     -35.06030000     -71.52910000
H      -44.42110000     -33.38960000     -71.18540000
C      -45.93180000     -34.46810000     -70.10760000
C      -46.18420000     -34.77780000     -68.79220000
C      -47.18220000     -34.74780000     -70.91300000
H      -45.34710000     -35.02040000     -68.08450000
C      -48.32680000     -35.09650000     -70.16650000
C      -47.51940000     -34.40380000     -72.33560000
C      -48.84790000     -34.61810000     -72.55980000
S      -47.84640000     -35.20560000     -68.49280000
S      -49.80500000     -35.14100000     -71.10880000
H      -49.36250000     -34.25540000     -73.43850000
