40
Properties=species:S:1:pos:R:3 #=T CELL(abcABC):=T 1.889726e+02=T 90.00000=T Traj:=T positionsangstrom=T Step:=T 0=T Bead:=T pbc="F F F"
C      -43.94120000     -30.77000000     -68.20930000
C      -44.02720000     -30.77110000     -69.59600000
C      -43.15660000     -31.62240000     -70.33970000
C      -42.25320000     -32.43210000     -69.72950000
C      -42.21990000     -32.38480000     -68.32310000
C      -43.10720000     -31.65740000     -67.54620000
H      -44.68000000     -30.26750000     -67.57780000
H      -43.24650000     -31.57950000     -71.39240000
H      -41.51710000     -33.03520000     -67.91640000
H      -43.09700000     -31.72940000     -66.45990000
C      -41.23120000     -33.17090000     -70.46100000
H      -40.32450000     -33.35820000     -69.89050000
H      -40.95500000     -32.82330000     -71.46820000
C      -44.99620000     -29.89060000     -70.30820000
H      -45.48710000     -29.23810000     -69.50880000
H      -44.37920000     -29.34060000     -71.01980000
S      -41.80960000     -34.93320000     -70.74800000
S      -46.32270000     -30.71000000     -71.23790000
C      -43.23670000     -34.73370000     -71.97360000
H      -43.34690000     -33.77520000     -72.37970000
H      -42.95770000     -35.24500000     -72.91340000
C      -47.09010000     -31.78210000     -69.88820000
H      -48.16690000     -31.48090000     -69.74970000
H      -46.61420000     -31.46540000     -68.97580000
C      -46.90090000     -33.29820000     -70.07590000
H      -45.86050000     -33.58500000     -70.25330000
H      -47.22830000     -33.73300000     -69.17850000
C      -44.40740000     -35.40700000     -71.39900000
H      -44.64700000     -34.90680000     -70.46210000
H      -44.20310000     -36.48660000     -71.16390000
C      -45.61400000     -35.42940000     -72.30910000
C      -45.50420000     -36.10480000     -73.50820000
C      -46.87160000     -34.68190000     -72.23610000
H      -44.68750000     -36.74630000     -73.71360000
C      -47.69920000     -34.90640000     -73.36960000
C      -47.49730000     -33.73490000     -71.36530000
C      -48.74110000     -33.32120000     -71.80780000
S      -46.98410000     -35.92630000     -74.55620000
S      -49.20610000     -34.03550000     -73.32000000
H      -49.51490000     -32.80800000     -71.21890000
