40
Properties=species:S:1:pos:R:3 #=T CELL(abcABC):=T 1.889726e+02=T 90.00000=T Traj:=T positionsangstrom=T Step:=T 0=T Bead:=T pbc="F F F"
C      -43.92400000     -29.90320000     -71.14230000
C      -43.69570000     -30.81570000     -72.18670000
C      -42.76280000     -31.82260000     -72.02350000
C      -42.03830000     -31.89390000     -70.82320000
C      -42.25410000     -30.97200000     -69.77210000
C      -43.20010000     -29.95190000     -69.98590000
H      -44.61900000     -29.08210000     -71.37060000
H      -42.67670000     -32.58840000     -72.84340000
H      -41.70530000     -31.02930000     -68.86190000
H      -43.37960000     -29.26130000     -69.21700000
C      -41.05220000     -32.98720000     -70.65040000
H      -40.48280000     -32.77300000     -69.75310000
H      -40.36420000     -33.03980000     -71.48910000
C      -44.36650000     -30.47530000     -73.55900000
H      -45.25670000     -29.88540000     -73.52360000
H      -43.71300000     -29.91540000     -74.28310000
S      -41.88700000     -34.59770000     -70.34250000
S      -44.77760000     -32.07520000     -74.39990000
C      -43.59610000     -34.47760000     -69.71120000
H      -43.65600000     -35.52760000     -69.34400000
H      -43.74670000     -33.80480000     -68.82030000
C      -46.24890000     -32.58540000     -73.36550000
H      -47.12010000     -31.92160000     -73.54050000
H      -46.03810000     -32.34110000     -72.31320000
C      -46.53650000     -34.02370000     -73.57890000
H      -47.00500000     -34.10640000     -74.56340000
H      -45.58380000     -34.59630000     -73.57320000
C      -44.61450000     -34.16920000     -70.80110000
H      -44.29110000     -34.78240000     -71.64130000
H      -44.50370000     -33.13040000     -71.12850000
C      -46.01240000     -34.46540000     -70.28920000
C      -46.27350000     -34.64710000     -68.93240000
C      -47.20190000     -34.61740000     -71.11840000
H      -45.68110000     -34.43120000     -68.07890000
C      -48.35520000     -35.06060000     -70.43410000
C      -47.48310000     -34.57500000     -72.55760000
C      -48.84010000     -34.70840000     -72.78480000
S      -47.98540000     -35.21880000     -68.73120000
S      -49.74870000     -35.33540000     -71.44590000
H      -49.13890000     -34.82060000     -73.83940000
