40
Properties=species:S:1:pos:R:3 #=T CELL(abcABC):=T 1.889726e+02=T 90.00000=T Traj:=T positionsangstrom=T Step:=T 0=T Bead:=T pbc="F F F"
C      -44.04560000     -30.85350000     -68.20130000
C      -43.97000000     -30.72170000     -69.60700000
C      -43.01970000     -31.42850000     -70.31910000
C      -42.09740000     -32.29030000     -69.67360000
C      -42.19880000     -32.39090000     -68.28130000
C      -43.14670000     -31.66600000     -67.48370000
H      -44.70580000     -30.21400000     -67.62110000
H      -43.12030000     -31.35220000     -71.40790000
H      -41.55240000     -33.17910000     -67.72520000
H      -43.17010000     -31.77950000     -66.45280000
C      -41.10320000     -33.12090000     -70.36270000
H      -40.15320000     -33.15790000     -69.82460000
H      -40.82300000     -32.69040000     -71.32170000
C      -44.92120000     -29.71880000     -70.18840000
H      -45.30520000     -29.02570000     -69.45620000
H      -44.41140000     -29.06690000     -70.95260000
S      -41.98990000     -34.80320000     -70.59540000
S      -46.30210000     -30.49000000     -71.19770000
C      -43.44380000     -34.46710000     -71.69360000
H      -43.82710000     -33.42050000     -71.65120000
H      -43.06510000     -34.58450000     -72.72670000
C      -47.20800000     -31.64890000     -70.01270000
H      -48.21850000     -31.33350000     -70.16340000
H      -46.94140000     -31.20550000     -69.04680000
C      -46.94160000     -33.11760000     -70.16490000
H      -45.89580000     -33.28320000     -70.12220000
H      -47.28050000     -33.62120000     -69.27530000
C      -44.41790000     -35.59110000     -71.44000000
H      -44.62960000     -35.83940000     -70.40060000
H      -43.91440000     -36.56840000     -71.73030000
C      -45.59400000     -35.47000000     -72.37350000
C      -45.53000000     -36.35220000     -73.46850000
C      -46.81330000     -34.65820000     -72.39710000
H      -44.77430000     -37.06970000     -73.85920000
C      -47.56980000     -34.89200000     -73.52450000
C      -47.57630000     -33.77840000     -71.42540000
C      -48.86850000     -33.59000000     -71.87120000
S      -46.86180000     -36.17730000     -74.60030000
S      -49.16970000     -34.30550000     -73.45580000
H      -49.44460000     -32.85850000     -71.40620000
