40
Properties=species:S:1:pos:R:3 #=T CELL(abcABC):=T 1.889726e+02=T 90.00000=T Traj:=T positionsangstrom=T Step:=T 0=T Bead:=T pbc="F F F"
C      -48.96410000     -30.36140000     -71.33130000
C      -48.16650000     -31.16830000     -70.50610000
C      -46.77430000     -30.77620000     -70.35780000
C      -46.14600000     -29.73130000     -70.97650000
C      -46.93220000     -28.95790000     -71.86130000
C      -48.32340000     -29.26880000     -72.01010000
H      -50.05390000     -30.31040000     -71.41670000
H      -46.07730000     -31.22070000     -69.54330000
H      -46.46190000     -28.11440000     -72.36810000
H      -48.87050000     -28.72700000     -72.77670000
C      -44.71170000     -29.42020000     -70.62400000
H      -44.52750000     -29.81340000     -69.61260000
H      -44.60120000     -28.32020000     -70.64520000
C      -48.71210000     -32.45430000     -69.76420000
H      -48.23270000     -32.58900000     -68.80420000
H      -49.84070000     -32.39740000     -69.68920000
S      -43.49930000     -30.26770000     -71.75400000
S      -48.24080000     -33.91380000     -70.79160000
C      -43.63810000     -31.97060000     -71.11730000
H      -43.12340000     -32.08310000     -70.20100000
H      -44.70230000     -32.08150000     -70.89720000
C      -46.61780000     -33.45420000     -71.64650000
H      -45.90750000     -33.34210000     -70.82300000
H      -46.75980000     -32.42590000     -72.06650000
C      -46.24780000     -34.50820000     -72.70580000
H      -47.03010000     -34.83520000     -73.36180000
H      -45.66480000     -33.83700000     -73.43030000
C      -43.13390000     -32.97690000     -72.13160000
H      -42.05640000     -32.79710000     -72.21380000
H      -43.68880000     -32.87720000     -73.05120000
C      -43.05250000     -34.43370000     -71.69320000
C      -41.85620000     -34.87620000     -71.11650000
C      -44.04590000     -35.45840000     -71.73000000
H      -40.91960000     -34.38450000     -71.01750000
C      -43.59800000     -36.70290000     -71.18840000
C      -45.38060000     -35.61050000     -72.23950000
C      -45.87380000     -36.87760000     -72.01420000
S      -41.94070000     -36.58730000     -70.64170000
S      -44.75240000     -37.93500000     -71.36760000
H      -46.74550000     -37.36660000     -72.40100000
