40
Properties=species:S:1:pos:R:3 #=T CELL(abcABC):=T 1.889726e+02=T 90.00000=T Traj:=T positionsangstrom=T Step:=T 0=T Bead:=T pbc="F F F"
C      -43.96410000     -30.89270000     -68.17630000
C      -44.03510000     -30.78670000     -69.58020000
C      -43.22180000     -31.58960000     -70.34770000
C      -42.22800000     -32.38200000     -69.73600000
C      -42.12340000     -32.31170000     -68.36820000
C      -43.00990000     -31.64750000     -67.51610000
H      -44.58600000     -30.18390000     -67.64650000
H      -43.23040000     -31.62600000     -71.41620000
H      -41.35100000     -32.85530000     -67.90650000
H      -42.85230000     -31.60740000     -66.41570000
C      -41.27030000     -33.25410000     -70.60280000
H      -40.29030000     -33.21610000     -70.20430000
H      -41.19270000     -32.73300000     -71.57450000
C      -45.06380000     -29.89930000     -70.23400000
H      -45.43420000     -29.18260000     -69.58600000
H      -44.51510000     -29.29120000     -71.06210000
S      -41.80280000     -35.01720000     -70.84260000
S      -46.39210000     -30.84280000     -71.17610000
C      -43.24500000     -34.82750000     -71.96340000
H      -43.63070000     -33.75020000     -72.08770000
H      -42.93590000     -35.27370000     -72.97120000
C      -47.20920000     -31.77080000     -69.82260000
H      -48.30330000     -31.71000000     -69.86300000
H      -46.88370000     -31.36120000     -68.86980000
C      -46.87820000     -33.27740000     -69.97370000
H      -45.83650000     -33.51730000     -69.79540000
H      -47.42490000     -33.88090000     -69.15160000
C      -44.48140000     -35.55030000     -71.38220000
H      -44.85290000     -35.07560000     -70.45010000
H      -44.16840000     -36.51160000     -71.02620000
C      -45.60800000     -35.46350000     -72.42980000
C      -45.66300000     -36.12880000     -73.60890000
C      -46.73080000     -34.56020000     -72.38050000
H      -45.03260000     -36.99590000     -73.77020000
C      -47.62380000     -34.72240000     -73.45590000
C      -47.36350000     -33.74730000     -71.29150000
C      -48.63590000     -33.33890000     -71.63210000
S      -47.06840000     -35.92310000     -74.57500000
S      -49.08020000     -33.80840000     -73.25610000
H      -49.39300000     -32.64540000     -71.17050000
