40
Properties=species:S:1:pos:R:3 #=T CELL(abcABC):=T 1.889726e+02=T 90.00000=T Traj:=T positionsangstrom=T Step:=T 0=T Bead:=T pbc="F F F"
C      -44.48880000     -30.10710000     -70.86770000
C      -43.33290000     -30.60000000     -71.59150000
C      -42.46670000     -31.61110000     -71.15040000
C      -42.88580000     -32.25320000     -69.96160000
C      -44.07760000     -31.85670000     -69.27330000
C      -44.88390000     -30.78700000     -69.66130000
H      -44.90510000     -29.25300000     -71.39000000
H      -41.67240000     -31.95340000     -71.77470000
H      -44.31130000     -32.42690000     -68.38180000
H      -45.69540000     -30.51320000     -69.00340000
C      -42.03740000     -33.25960000     -69.30750000
H      -42.37350000     -33.42900000     -68.33630000
H      -41.00870000     -32.96650000     -69.31360000
C      -43.33070000     -30.21480000     -73.06100000
H      -44.13610000     -29.49280000     -73.26440000
H      -42.56300000     -29.68760000     -73.44960000
S      -41.94320000     -34.94430000     -70.14720000
S      -43.76810000     -31.60790000     -74.10080000
C      -43.65720000     -35.58610000     -69.78260000
H      -43.67450000     -36.63270000     -70.01740000
H      -43.70510000     -35.46340000     -68.74590000
C      -45.22880000     -32.23710000     -73.25510000
H      -46.09140000     -31.56320000     -73.37960000
H      -44.92940000     -32.13260000     -72.23380000
C      -45.63960000     -33.70120000     -73.53280000
H      -45.75650000     -33.83010000     -74.63940000
H      -44.76970000     -34.27130000     -73.13780000
C      -44.67070000     -34.93820000     -70.77320000
H      -44.52920000     -35.55820000     -71.66500000
H      -44.41270000     -33.89570000     -70.99020000
C      -46.16670000     -34.94470000     -70.47470000
C      -46.78490000     -35.48180000     -69.37420000
C      -47.05370000     -34.53060000     -71.52300000
H      -46.39090000     -35.99790000     -68.52200000
C      -48.42430000     -34.67880000     -71.12990000
C      -46.98790000     -34.02460000     -72.82870000
C      -48.18420000     -33.79300000     -73.41430000
S      -48.46500000     -35.37540000     -69.52720000
S      -49.52330000     -34.20990000     -72.35010000
H      -48.27620000     -33.39330000     -74.39210000
