40
Properties=species:S:1:pos:R:3 #=T CELL(abcABC):=T 1.889726e+02=T 90.00000=T Traj:=T positionsangstrom=T Step:=T 0=T Bead:=T pbc="F F F"
C      -43.65280000     -30.25990000     -70.57120000
C      -42.94870000     -30.99770000     -71.59820000
C      -42.19450000     -32.04730000     -71.11140000
C      -42.17980000     -32.50420000     -69.79380000
C      -42.87910000     -31.78260000     -68.84880000
C      -43.59970000     -30.66110000     -69.25590000
H      -44.31130000     -29.37530000     -70.74860000
H      -41.66630000     -32.63110000     -71.86930000
H      -43.06080000     -32.00460000     -67.81710000
H      -43.99660000     -30.10910000     -68.46630000
C      -41.36590000     -33.71780000     -69.43720000
H      -41.16470000     -33.75200000     -68.38050000
H      -40.44520000     -33.68030000     -70.08390000
C      -43.06350000     -30.62850000     -73.07500000
H      -43.49440000     -29.64920000     -73.27910000
H      -42.03870000     -30.61000000     -73.53580000
S      -42.32610000     -35.19610000     -70.10430000
S      -43.77740000     -31.94180000     -74.03700000
C      -44.08960000     -34.94610000     -69.58860000
H      -44.45480000     -35.88470000     -69.13840000
H      -44.14530000     -34.13210000     -68.75530000
C      -45.52830000     -32.24690000     -73.35540000
H      -46.15930000     -31.33060000     -73.53940000
H      -45.51430000     -32.37210000     -72.23850000
C      -45.99010000     -33.56400000     -73.86530000
H      -46.32000000     -33.53400000     -74.94190000
H      -45.19320000     -34.35860000     -73.83860000
C      -44.94890000     -34.66060000     -70.78480000
H      -44.60510000     -35.37990000     -71.63450000
H      -44.63510000     -33.62050000     -71.11480000
C      -46.42410000     -34.65900000     -70.60170000
C      -47.01830000     -34.91640000     -69.40620000
C      -47.32390000     -34.36290000     -71.67770000
H      -46.38060000     -35.02450000     -68.52500000
C      -48.64760000     -34.50350000     -71.24590000
C      -47.24040000     -34.04060000     -73.06800000
C      -48.50360000     -33.93240000     -73.63480000
S      -48.83790000     -34.85740000     -69.52750000
S      -49.86350000     -34.24150000     -72.47260000
H      -48.66200000     -33.92790000     -74.72800000
