40
Properties=species:S:1:pos:R:3 #=T CELL(abcABC):=T 1.889726e+02=T 90.00000=T Traj:=T positionsangstrom=T Step:=T 0=T Bead:=T pbc="F F F"
C      -43.21500000     -30.67920000     -70.81140000
C      -42.39500000     -31.41500000     -71.65250000
C      -41.66260000     -32.51320000     -71.12940000
C      -41.85220000     -32.96190000     -69.82390000
C      -42.60330000     -32.14600000     -68.93750000
C      -43.27940000     -30.99720000     -69.40250000
H      -43.88080000     -29.95160000     -71.31000000
H      -41.35150000     -33.30190000     -71.83950000
H      -42.74760000     -32.47930000     -67.94700000
H      -43.93180000     -30.47090000     -68.71080000
C      -41.60060000     -34.34840000     -69.41160000
H      -41.70850000     -34.30020000     -68.29920000
H      -40.56790000     -34.70700000     -69.53330000
C      -42.38530000     -31.11080000     -73.12750000
H      -42.61520000     -30.08540000     -73.36750000
H      -41.33730000     -31.33120000     -73.53410000
S      -42.66410000     -35.70820000     -70.12300000
S      -43.65610000     -32.06860000     -74.12490000
C      -44.39800000     -35.22580000     -69.59740000
H      -44.77310000     -36.10280000     -69.04280000
H      -44.28980000     -34.37510000     -68.85160000
C      -45.20720000     -32.09970000     -73.05320000
H      -45.64030000     -31.07040000     -72.98170000
H      -44.89400000     -32.34210000     -72.01920000
C      -46.05340000     -33.29220000     -73.61930000
H      -46.11100000     -33.19860000     -74.68020000
H      -45.38940000     -34.17200000     -73.41410000
C      -45.19350000     -34.75020000     -70.75810000
H      -45.04640000     -35.45440000     -71.61080000
H      -44.69230000     -33.82080000     -70.96400000
C      -46.65620000     -34.47000000     -70.63280000
C      -47.31420000     -34.84430000     -69.49390000
C      -47.50840000     -34.01620000     -71.63080000
H      -46.81000000     -35.44840000     -68.73170000
C      -48.82950000     -33.90310000     -71.19560000
C      -47.37530000     -33.47130000     -72.98320000
C      -48.62680000     -33.13010000     -73.50210000
S      -49.12310000     -34.56070000     -69.58550000
S      -49.95390000     -33.41680000     -72.40660000
H      -48.81180000     -32.87610000     -74.53240000
