40
Properties=species:S:1:pos:R:3 #=T CELL(abcABC):=T 1.889726e+02=T 90.00000=T Traj:=T positionsangstrom=T Step:=T 0=T Bead:=T pbc="F F F"
C      -42.79430000     -30.42190000     -70.66930000
C      -42.62550000     -31.41620000     -71.68260000
C      -42.21020000     -32.69320000     -71.28190000
C      -42.22810000     -33.04020000     -69.91520000
C      -42.40560000     -32.07710000     -68.92640000
C      -42.69520000     -30.76290000     -69.32020000
H      -43.04840000     -29.42240000     -71.02870000
H      -42.02570000     -33.43040000     -72.08960000
H      -42.14340000     -32.35520000     -67.88180000
H      -42.73200000     -29.94140000     -68.60120000
C      -41.74210000     -34.40000000     -69.45940000
H      -41.69250000     -34.27770000     -68.29600000
H      -40.70030000     -34.62410000     -69.80090000
C      -42.54080000     -30.94240000     -73.08570000
H      -42.72200000     -29.83550000     -73.08280000
H      -41.54270000     -31.21610000     -73.51230000
S      -42.80580000     -35.86040000     -70.07680000
S      -43.55510000     -31.94990000     -74.21280000
C      -44.45590000     -35.43710000     -69.46600000
H      -45.07120000     -36.35560000     -69.22800000
H      -44.34330000     -34.93220000     -68.47000000
C      -45.22680000     -31.95810000     -73.39310000
H      -45.78350000     -31.03800000     -73.59420000
H      -45.14930000     -31.90840000     -72.31070000
C      -46.00200000     -33.28810000     -73.69150000
H      -46.10690000     -33.32920000     -74.82550000
H      -45.37530000     -34.10080000     -73.38750000
C      -45.16090000     -34.50940000     -70.45880000
H      -44.90070000     -34.66190000     -71.49990000
H      -44.68980000     -33.48560000     -70.39940000
C      -46.62830000     -34.33530000     -70.42050000
C      -47.34540000     -34.87080000     -69.37080000
C      -47.45010000     -33.91960000     -71.58090000
H      -46.98260000     -34.95120000     -68.34350000
C      -48.78160000     -34.04950000     -71.21000000
C      -47.30530000     -33.43530000     -72.96640000
C      -48.54170000     -33.20970000     -73.55060000
S      -49.11790000     -34.65770000     -69.59450000
S      -49.94630000     -33.60220000     -72.48760000
H      -48.89210000     -32.81520000     -74.55940000
