40
Properties=species:S:1:pos:R:3 #=T CELL(abcABC):=T 1.889726e+02=T 90.00000=T Traj:=T positionsangstrom=T Step:=T 0=T Bead:=T pbc="F F F"
C      -43.68630000     -31.09320000     -68.33050000
C      -43.68980000     -30.94420000     -69.68700000
C      -43.13950000     -32.02840000     -70.41440000
C      -42.62870000     -33.09550000     -69.73600000
C      -42.62060000     -33.21930000     -68.34830000
C      -43.14210000     -32.20560000     -67.61150000
H      -44.12330000     -30.41390000     -67.63710000
H      -43.17000000     -32.20820000     -71.50680000
H      -42.13010000     -34.08340000     -67.87950000
H      -43.36920000     -32.20000000     -66.50560000
C      -41.96150000     -34.22360000     -70.41230000
H      -40.90010000     -34.07890000     -70.08200000
H      -42.03270000     -34.11490000     -71.48100000
C      -44.29150000     -29.74300000     -70.35730000
H      -44.44200000     -29.02710000     -69.56850000
H      -43.66340000     -29.23670000     -71.07390000
S      -42.41580000     -35.98980000     -70.02300000
S      -45.78690000     -30.06330000     -71.37660000
C      -43.63130000     -36.06560000     -71.33540000
H      -43.00690000     -35.94990000     -72.28180000
H      -44.22100000     -37.06680000     -71.44470000
C      -46.75270000     -31.02310000     -70.08300000
H      -47.78320000     -30.66620000     -70.13320000
H      -46.27680000     -30.92990000     -69.08790000
C      -46.59760000     -32.47940000     -70.44510000
H      -45.56600000     -32.58600000     -70.54290000
H      -46.80200000     -33.10230000     -69.53520000
C      -44.86590000     -35.11990000     -71.04920000
H      -44.52270000     -34.08770000     -70.83640000
H      -45.44140000     -35.54280000     -70.21530000
C      -45.78150000     -35.22290000     -72.25150000
C      -45.81710000     -36.18890000     -73.22400000
C      -46.88850000     -34.26860000     -72.36380000
H      -45.06070000     -36.77700000     -73.57080000
C      -47.63630000     -34.50050000     -73.54190000
C      -47.24710000     -32.98540000     -71.74350000
C      -48.26090000     -32.30220000     -72.39170000
S      -47.20540000     -35.95550000     -74.33670000
S      -48.85120000     -33.31280000     -73.78540000
H      -48.70190000     -31.28410000     -72.19650000
