40
Properties=species:S:1:pos:R:3 #=T CELL(abcABC):=T 1.889726e+02=T 90.00000=T Traj:=T positionsangstrom=T Step:=T 0=T Bead:=T pbc="F F F"
C      -43.71820000     -31.09850000     -68.44000000
C      -43.64040000     -31.02350000     -69.83280000
C      -43.01790000     -32.06000000     -70.44340000
C      -42.63010000     -33.18580000     -69.66620000
C      -42.54450000     -33.15400000     -68.27880000
C      -43.27230000     -32.12110000     -67.61660000
H      -44.19030000     -30.30370000     -67.87090000
H      -42.84250000     -32.11020000     -71.54260000
H      -42.18600000     -34.07920000     -67.83460000
H      -43.16140000     -31.99530000     -66.51340000
C      -41.84140000     -34.24150000     -70.39250000
H      -40.76190000     -34.14710000     -70.16050000
H      -41.87210000     -34.17120000     -71.47410000
C      -44.10670000     -29.82430000     -70.60960000
H      -43.96560000     -28.97050000     -69.94400000
H      -43.45890000     -29.80190000     -71.50770000
S      -42.33630000     -36.00360000     -70.05930000
S      -45.84590000     -29.80500000     -71.18760000
C      -43.75480000     -36.33830000     -71.20910000
H      -43.33530000     -36.21610000     -72.22340000
H      -43.92620000     -37.35610000     -71.07400000
C      -46.84260000     -30.95560000     -70.16100000
H      -47.81980000     -30.53770000     -70.17580000
H      -46.54300000     -30.76790000     -69.11200000
C      -46.75540000     -32.45790000     -70.44760000
H      -45.67060000     -32.69260000     -70.29190000
H      -47.28570000     -32.93730000     -69.60650000
C      -44.90740000     -35.31540000     -71.03330000
H      -44.60520000     -34.32590000     -70.77810000
H      -45.45010000     -35.59310000     -70.15570000
C      -45.77830000     -35.23790000     -72.24570000
C      -45.94600000     -36.22880000     -73.16420000
C      -46.79840000     -34.19570000     -72.41130000
H      -45.30320000     -37.01090000     -73.34220000
C      -47.47890000     -34.37920000     -73.64290000
C      -47.26420000     -32.99920000     -71.74670000
C      -48.39390000     -32.44920000     -72.39440000
S      -47.14980000     -35.91790000     -74.38130000
S      -48.90280000     -33.34710000     -73.73460000
H      -48.98640000     -31.58970000     -72.14570000
