40
Properties=species:S:1:pos:R:3 #=T CELL(abcABC):=T 1.889726e+02=T 90.00000=T Traj:=T positionsangstrom=T Step:=T 0=T Bead:=T pbc="F F F"
C      -43.47650000     -30.52950000     -68.32820000
C      -43.48850000     -31.82440000     -68.72860000
C      -42.99330000     -32.19370000     -69.98770000
C      -42.48590000     -31.27830000     -70.88440000
C      -42.50430000     -29.86980000     -70.51280000
C      -42.89250000     -29.57660000     -69.20850000
H      -43.78960000     -30.33070000     -67.28460000
H      -42.96830000     -33.23540000     -70.31460000
H      -42.31480000     -29.04210000     -71.26520000
H      -42.76470000     -28.56480000     -68.78730000
C      -42.20800000     -31.66650000     -72.27140000
H      -42.30010000     -32.74150000     -72.42580000
H      -41.25220000     -31.37860000     -72.76510000
C      -44.15210000     -32.82270000     -67.82370000
H      -43.96770000     -32.62940000     -66.82650000
H      -45.23370000     -32.69990000     -67.70510000
S      -43.57210000     -30.99320000     -73.35820000
S      -43.90010000     -34.57160000     -68.15270000
C      -44.84270000     -32.28440000     -73.34500000
H      -45.13490000     -32.28830000     -74.35910000
H      -44.31490000     -33.30280000     -73.09190000
C      -45.26890000     -34.95950000     -69.26600000
H      -46.08890000     -34.24470000     -69.18580000
H      -45.64480000     -35.91590000     -68.93480000
C      -44.86520000     -34.99700000     -70.72240000
H      -44.36130000     -34.05350000     -71.02280000
H      -44.02800000     -35.71980000     -70.85380000
C      -46.04310000     -32.19800000     -72.35810000
H      -46.44240000     -31.16440000     -72.44130000
H      -45.64830000     -32.25280000     -71.38580000
C      -47.06950000     -33.22320000     -72.63090000
C      -48.18510000     -32.91870000     -73.38880000
C      -46.96010000     -34.65170000     -72.27200000
H      -48.59950000     -31.94530000     -73.56530000
C      -48.04940000     -35.39870000     -72.78010000
C      -45.98540000     -35.46200000     -71.60190000
C      -46.37050000     -36.76780000     -71.52840000
S      -49.10260000     -34.32670000     -73.85180000
S      -47.99650000     -37.09560000     -72.30430000
H      -45.93950000     -37.54930000     -70.97670000
