40
Properties=species:S:1:pos:R:3 #=T CELL(abcABC):=T 1.889726e+02=T 90.00000=T Traj:=T positionsangstrom=T Step:=T 0=T Bead:=T pbc="F F F"
C      -43.52990000     -30.51100000     -67.82450000
C      -43.58230000     -31.74620000     -68.45000000
C      -43.31370000     -31.79220000     -69.87520000
C      -42.81620000     -30.71230000     -70.58920000
C      -42.65580000     -29.48830000     -69.87500000
C      -43.00520000     -29.40290000     -68.51040000
H      -43.77710000     -30.38250000     -66.74140000
H      -43.36080000     -32.72270000     -70.39190000
H      -42.51310000     -28.65520000     -70.59790000
H      -42.85340000     -28.42010000     -68.00240000
C      -42.45470000     -30.82090000     -72.04440000
H      -42.08470000     -31.78810000     -72.20140000
H      -41.67280000     -30.05880000     -72.31860000
C      -44.00040000     -32.95310000     -67.68410000
H      -43.56910000     -32.99540000     -66.70800000
H      -45.15920000     -32.91070000     -67.49620000
S      -43.74830000     -30.72620000     -73.39610000
S      -43.73340000     -34.59200000     -68.36780000
C      -44.59860000     -32.33830000     -73.35470000
H      -44.78260000     -32.54000000     -74.41230000
H      -43.80570000     -33.02070000     -73.08900000
C      -45.23980000     -34.89820000     -69.46590000
H      -46.04820000     -34.22980000     -69.25500000
H      -45.67450000     -35.85280000     -69.10130000
C      -44.84190000     -35.09000000     -70.95430000
H      -44.28920000     -34.18250000     -71.44910000
H      -43.95380000     -35.79860000     -71.04280000
C      -45.87610000     -32.39450000     -72.53600000
H      -46.33460000     -31.46930000     -72.63540000
H      -45.68390000     -32.46190000     -71.50240000
C      -46.87830000     -33.48680000     -72.94180000
C      -47.92390000     -33.27040000     -73.84160000
C      -46.94370000     -34.81600000     -72.44800000
H      -48.20960000     -32.34320000     -74.31170000
C      -47.95590000     -35.63210000     -72.99010000
C      -46.03280000     -35.64260000     -71.68460000
C      -46.42900000     -36.93740000     -71.50420000
S      -49.00870000     -34.65670000     -74.02310000
S      -48.03010000     -37.32070000     -72.31120000
H      -45.81190000     -37.62150000     -70.90670000
