40
Properties=species:S:1:pos:R:3 #=T CELL(abcABC):=T 1.889726e+02=T 90.00000=T Traj:=T positionsangstrom=T Step:=T 0=T Bead:=T pbc="F F F"
C      -43.93390000     -30.37510000     -67.83610000
C      -43.68490000     -31.66380000     -68.36320000
C      -43.13950000     -31.79650000     -69.60370000
C      -42.96870000     -30.65680000     -70.44660000
C      -43.12730000     -29.36090000     -69.83980000
C      -43.66370000     -29.23680000     -68.55180000
H      -44.28550000     -30.29460000     -66.81170000
H      -43.01480000     -32.82360000     -70.04230000
H      -43.14290000     -28.50900000     -70.50980000
H      -43.98360000     -28.31140000     -68.13890000
C      -42.52460000     -30.71310000     -71.90090000
H      -42.13740000     -31.73820000     -72.09330000
H      -41.84170000     -29.94340000     -72.09440000
C      -44.02130000     -32.83710000     -67.47390000
H      -43.50280000     -32.87700000     -66.44950000
H      -45.04030000     -32.89070000     -67.17420000
S      -43.93720000     -30.38430000     -73.13680000
S      -43.74890000     -34.49290000     -68.29700000
C      -44.73010000     -32.03420000     -73.44440000
H      -45.11150000     -31.87960000     -74.42960000
H      -44.03770000     -32.87010000     -73.43130000
C      -45.18900000     -34.56430000     -69.55350000
H      -45.27780000     -33.50520000     -69.86080000
H      -46.05640000     -34.88070000     -68.93480000
C      -44.89080000     -35.45350000     -70.72580000
H      -44.21820000     -34.84190000     -71.36780000
H      -44.35690000     -36.32580000     -70.38490000
C      -45.73140000     -32.57540000     -72.40450000
H      -46.37380000     -31.74860000     -72.07160000
H      -45.18890000     -32.93540000     -71.56060000
C      -46.73080000     -33.69300000     -72.86970000
C      -47.52620000     -33.45330000     -73.97720000
C      -46.68900000     -35.10600000     -72.57560000
H      -47.69270000     -32.47490000     -74.38240000
C      -47.72250000     -35.75270000     -73.20990000
C      -45.98730000     -35.93350000     -71.57430000
C      -46.54450000     -37.21310000     -71.50460000
S      -48.63320000     -34.79480000     -74.33690000
S      -47.86850000     -37.46180000     -72.64760000
H      -46.23950000     -37.96430000     -70.80600000
