40
Properties=species:S:1:pos:R:3 #=T CELL(abcABC):=T 1.889726e+02=T 90.00000=T Traj:=T positionsangstrom=T Step:=T 0=T Bead:=T pbc="F F F"
C      -42.55780000     -30.72410000     -69.78660000
C      -42.38550000     -31.55300000     -70.88840000
C      -42.31170000     -32.94690000     -70.65030000
C      -42.42910000     -33.41590000     -69.28540000
C      -42.73540000     -32.57020000     -68.23890000
C      -42.78190000     -31.17240000     -68.45080000
H      -42.43560000     -29.70080000     -70.05370000
H      -42.28400000     -33.62790000     -71.50570000
H      -42.78390000     -33.11730000     -67.30050000
H      -42.78150000     -30.42240000     -67.70010000
C      -42.18730000     -34.88820000     -68.95990000
H      -42.44060000     -35.06030000     -67.91350000
H      -41.11160000     -35.06080000     -69.08970000
C      -42.16110000     -30.92730000     -72.21960000
H      -42.36080000     -29.85170000     -72.31790000
H      -41.18350000     -31.06020000     -72.63680000
S      -42.91930000     -36.13950000     -70.10870000
S      -43.31400000     -31.59450000     -73.58050000
C      -44.73640000     -35.81790000     -70.08830000
H      -45.15080000     -36.76300000     -70.36500000
H      -44.98850000     -35.50500000     -69.12040000
C      -45.10400000     -31.64440000     -72.97090000
H      -45.52470000     -30.69970000     -73.26500000
H      -45.21390000     -31.86920000     -71.86590000
C      -45.87290000     -32.65320000     -73.78650000
H      -45.98400000     -32.11820000     -74.77320000
H      -45.32680000     -33.55630000     -73.95110000
C      -45.21570000     -34.70320000     -71.08760000
H      -44.92040000     -34.90850000     -72.15940000
H      -44.78750000     -33.80340000     -70.83170000
C      -46.70640000     -34.58720000     -71.07120000
C      -47.50330000     -35.29940000     -70.18060000
C      -47.47610000     -33.87500000     -72.09880000
H      -47.16380000     -35.94780000     -69.41500000
C      -48.84170000     -33.97630000     -71.91820000
C      -47.21860000     -32.92220000     -73.16970000
C      -48.33200000     -32.29400000     -73.64270000
S      -49.23690000     -34.94810000     -70.56420000
S      -49.76850000     -32.87240000     -72.91730000
H      -48.41910000     -31.66210000     -74.52320000
