40
Properties=species:S:1:pos:R:3 #=T CELL(abcABC):=T 1.889726e+02=T 90.00000=T Traj:=T positionsangstrom=T Step:=T 0=T Bead:=T pbc="F F F"
C      -48.79830000     -34.16970000     -67.45350000
C      -48.16270000     -33.91730000     -68.70870000
C      -46.74400000     -33.91320000     -68.81610000
C      -45.95880000     -34.01110000     -67.66890000
C      -46.60650000     -34.18520000     -66.44800000
C      -47.98840000     -34.40040000     -66.37240000
H      -49.87830000     -34.35920000     -67.46640000
H      -46.25030000     -33.93690000     -69.70210000
H      -46.14280000     -34.34130000     -65.45890000
H      -48.55030000     -34.59190000     -65.44950000
C      -44.44060000     -33.82360000     -67.88490000
H      -44.06800000     -34.61380000     -68.55300000
H      -43.88020000     -33.91510000     -66.92600000
C      -48.98780000     -33.52780000     -69.91150000
H      -49.99830000     -33.80590000     -69.66480000
H      -48.87280000     -32.57520000     -70.08860000
S      -43.90240000     -32.20460000     -68.53040000
S      -48.67620000     -34.65450000     -71.44590000
C      -43.19080000     -32.59280000     -70.12950000
H      -42.07710000     -32.81700000     -70.05810000
H      -43.59160000     -33.56190000     -70.47940000
C      -47.44300000     -33.72240000     -72.43260000
H      -47.70860000     -32.71370000     -72.24380000
H      -47.66620000     -33.81520000     -73.46870000
C      -46.00860000     -34.07030000     -72.10230000
H      -45.60300000     -33.35590000     -71.36720000
H      -46.04360000     -35.11690000     -71.64190000
C      -43.61160000     -31.55620000     -71.15530000
H      -43.21210000     -30.55570000     -70.90320000
H      -44.67780000     -31.48250000     -71.14640000
C      -43.25830000     -32.00640000     -72.55310000
C      -42.32720000     -31.32840000     -73.29040000
C      -43.94900000     -33.01530000     -73.34370000
H      -41.71950000     -30.55720000     -72.70490000
C      -43.33100000     -33.13950000     -74.63830000
C      -45.07340000     -34.00760000     -73.29260000
C      -45.29190000     -34.68840000     -74.50820000
S      -42.07190000     -31.94850000     -74.90250000
S      -44.13140000     -34.24790000     -75.73560000
H      -46.18620000     -35.37780000     -74.66970000
