40
Properties=species:S:1:pos:R:3 #=T CELL(abcABC):=T 1.889726e+02=T 90.00000=T Traj:=T positionsangstrom=T Step:=T 0=T Bead:=T pbc="F F F"
C      -46.84170000     -36.11380000     -73.73480000
C      -46.63810000     -36.37320000     -72.32910000
C      -47.43210000     -35.65800000     -71.41330000
C      -48.34430000     -34.70570000     -71.80500000
C      -48.46410000     -34.39640000     -73.18180000
C      -47.69510000     -35.07570000     -74.10620000
H      -46.15280000     -36.37950000     -74.52600000
H      -47.24430000     -35.91240000     -70.38070000
H      -49.26040000     -33.68520000     -73.43820000
H      -47.63190000     -34.81000000     -75.16540000
C      -49.27750000     -34.00770000     -70.78730000
H      -50.13590000     -34.62230000     -70.50310000
H      -49.61500000     -33.02260000     -71.22560000
C      -45.70900000     -37.40120000     -71.81810000
H      -46.33310000     -38.01230000     -71.12920000
H      -45.42630000     -37.99420000     -72.69850000
S      -48.41250000     -33.50530000     -69.23920000
S      -44.14380000     -36.76910000     -70.99880000
C      -47.42520000     -32.06110000     -69.80280000
H      -48.04850000     -31.36240000     -70.34650000
H      -47.01530000     -31.57510000     -68.91850000
C      -43.87830000     -35.00700000     -71.48360000
H      -44.78230000     -34.46230000     -71.73480000
H      -43.07120000     -35.14040000     -72.30950000
C      -43.15080000     -34.31590000     -70.31910000
H      -43.82850000     -34.42360000     -69.42870000
H      -42.18940000     -34.81660000     -70.09190000
C      -46.23610000     -32.62360000     -70.72390000
H      -46.70710000     -33.06760000     -71.62180000
H      -45.74660000     -33.42470000     -70.22680000
C      -45.14660000     -31.64160000     -70.98410000
C      -45.48860000     -30.35830000     -71.30270000
C      -43.73620000     -31.87910000     -71.09790000
H      -46.51400000     -29.96460000     -71.18770000
C      -43.05350000     -30.70860000     -71.45440000
C      -42.83100000     -32.92020000     -70.70440000
C      -41.56170000     -32.50500000     -70.73650000
S      -44.10840000     -29.34780000     -71.89010000
S      -41.33310000     -30.85770000     -71.34990000
H      -40.65360000     -33.11290000     -70.62800000
