40
Properties=species:S:1:pos:R:3 #=T CELL(abcABC):=T 1.889726e+02=T 90.00000=T Traj:=T positionsangstrom=T Step:=T 0=T Bead:=T pbc="F F F"
C      -42.84280000     -30.55920000     -69.49200000
C      -42.49130000     -31.36180000     -70.55340000
C      -42.29680000     -32.73900000     -70.44330000
C      -42.45390000     -33.38010000     -69.22810000
C      -42.91440000     -32.58450000     -68.15100000
C      -43.09540000     -31.20330000     -68.28450000
H      -43.15310000     -29.46750000     -69.70380000
H      -41.88300000     -33.34360000     -71.29220000
H      -42.99400000     -32.94430000     -67.11330000
H      -43.50850000     -30.59760000     -67.44950000
C      -42.25000000     -34.86410000     -68.99330000
H      -42.81960000     -35.05100000     -68.07030000
H      -41.17190000     -35.09390000     -68.79900000
C      -42.42470000     -30.71860000     -71.96140000
H      -42.85280000     -29.72580000     -72.00830000
H      -41.37080000     -30.44050000     -72.28530000
S      -42.82340000     -35.91120000     -70.43360000
S      -43.07180000     -31.87740000     -73.24490000
C      -44.63430000     -35.73140000     -70.29950000
H      -44.98720000     -36.75000000     -70.56290000
H      -44.92330000     -35.54110000     -69.22790000
C      -44.89760000     -31.73230000     -72.98980000
H      -45.19520000     -30.68770000     -73.18910000
H      -45.05810000     -32.07190000     -71.93670000
C      -45.68850000     -32.72140000     -73.89110000
H      -45.96210000     -32.15840000     -74.83710000
H      -45.14600000     -33.57320000     -74.20770000
C      -45.31700000     -34.83130000     -71.33610000
H      -44.96240000     -35.28830000     -72.33480000
H      -45.01560000     -33.77840000     -71.29250000
C      -46.75270000     -34.86350000     -71.36480000
C      -47.58150000     -35.51850000     -70.47110000
C      -47.51200000     -33.95280000     -72.22330000
H      -47.21420000     -36.12940000     -69.63610000
C      -48.88370000     -33.92630000     -71.95350000
C      -47.06430000     -33.00850000     -73.19590000
C      -48.15450000     -32.23480000     -73.52840000
S      -49.30560000     -35.10050000     -70.60620000
S      -49.72800000     -32.69890000     -72.95390000
H      -48.18600000     -31.49870000     -74.28240000
