40
Properties=species:S:1:pos:R:3 #=T CELL(abcABC):=T 1.889726e+02=T 90.00000=T Traj:=T positionsangstrom=T Step:=T 0=T Bead:=T pbc="F F F"
C      -43.94440000     -31.10080000     -69.19430000
C      -42.94660000     -31.43510000     -70.14220000
C      -42.25440000     -32.62140000     -70.05240000
C      -42.66710000     -33.59490000     -69.15250000
C      -43.50920000     -33.25840000     -68.16150000
C      -44.16870000     -32.00460000     -68.15390000
H      -44.54230000     -30.17490000     -69.18730000
H      -41.63470000     -32.76390000     -70.90960000
H      -43.73680000     -33.95760000     -67.39500000
H      -44.92850000     -31.69430000     -67.41080000
C      -42.00820000     -34.92960000     -69.08160000
H      -42.18540000     -35.33810000     -68.06930000
H      -40.92520000     -34.82700000     -69.28750000
C      -42.60060000     -30.62490000     -71.30560000
H      -43.15620000     -29.62710000     -71.25920000
H      -41.51740000     -30.43900000     -71.34440000
S      -42.68510000     -36.11810000     -70.38980000
S      -43.01200000     -31.28630000     -73.02560000
C      -44.50140000     -35.87130000     -70.33190000
H      -44.89700000     -36.88360000     -70.63240000
H      -44.86230000     -35.75390000     -69.26870000
C      -44.91780000     -31.42840000     -72.60470000
H      -45.36340000     -30.52310000     -72.79700000
H      -45.21790000     -31.61560000     -71.52280000
C      -45.43750000     -32.44820000     -73.68490000
H      -45.39130000     -32.02020000     -74.65840000
H      -44.90730000     -33.42640000     -73.74830000
C      -45.04710000     -34.70280000     -71.25800000
H      -44.68480000     -35.02660000     -72.27480000
H      -44.58840000     -33.74720000     -71.10170000
C      -46.61540000     -34.61940000     -71.38780000
C      -47.45000000     -35.42500000     -70.69220000
C      -47.24960000     -33.72200000     -72.32600000
H      -47.23060000     -36.17080000     -69.95790000
C      -48.61170000     -33.71400000     -72.15900000
C      -46.90210000     -32.82580000     -73.41620000
C      -47.97300000     -32.37710000     -74.13970000
S      -49.14620000     -34.93150000     -70.94110000
S      -49.46350000     -32.91030000     -73.37200000
H      -47.95780000     -31.82650000     -75.11600000
