40
Properties=species:S:1:pos:R:3 #=T CELL(abcABC):=T 1.889726e+02=T 90.00000=T Traj:=T positionsangstrom=T Step:=T 0=T Bead:=T pbc="F F F"
C      -43.93150000     -31.23390000     -69.03690000
C      -43.00770000     -31.54990000     -70.05290000
C      -42.37750000     -32.79180000     -70.07660000
C      -42.66890000     -33.66260000     -69.05920000
C      -43.50790000     -33.30710000     -68.00980000
C      -44.20580000     -32.10000000     -67.95660000
H      -44.40610000     -30.22140000     -69.11060000
H      -41.59990000     -33.00770000     -70.83330000
H      -43.51290000     -33.99080000     -67.13670000
H      -44.93420000     -31.69210000     -67.24560000
C      -42.05090000     -35.05540000     -69.12700000
H      -42.32840000     -35.65360000     -68.23360000
H      -40.98240000     -35.04090000     -69.23730000
C      -42.76080000     -30.51410000     -71.14730000
H      -43.34060000     -29.60390000     -71.05500000
H      -41.80280000     -30.10000000     -71.09290000
S      -42.57450000     -36.00920000     -70.57820000
S      -43.03750000     -31.25800000     -72.84940000
C      -44.51680000     -35.91290000     -70.48840000
H      -44.92610000     -36.85730000     -70.71530000
H      -44.65590000     -35.63910000     -69.44830000
C      -44.82200000     -31.52910000     -72.70280000
H      -45.37150000     -30.52130000     -72.58230000
H      -44.88310000     -32.00850000     -71.76370000
C      -45.48180000     -32.46170000     -73.77740000
H      -45.40520000     -31.98600000     -74.78120000
H      -44.85420000     -33.30530000     -73.75400000
C      -45.03200000     -34.85810000     -71.49890000
H      -44.70560000     -35.07520000     -72.56160000
H      -44.49780000     -33.89860000     -71.31510000
C      -46.56690000     -34.65570000     -71.48450000
C      -47.48540000     -35.19450000     -70.57910000
C      -47.23060000     -33.86050000     -72.51300000
H      -47.26370000     -35.84350000     -69.79140000
C      -48.62270000     -33.89410000     -72.31980000
C      -46.88790000     -32.83440000     -73.53130000
C      -47.96460000     -32.09340000     -73.91530000
S      -49.13690000     -34.91630000     -70.99260000
S      -49.45000000     -32.76640000     -73.31750000
H      -47.90760000     -31.19360000     -74.60600000
