40
Properties=species:S:1:pos:R:3 #=T CELL(abcABC):=T 1.889726e+02=T 90.00000=T Traj:=T positionsangstrom=T Step:=T 0=T Bead:=T pbc="F F F"
C      -44.03630000     -31.71850000     -68.88190000
C      -42.95620000     -31.79700000     -69.76180000
C      -42.18540000     -32.93030000     -69.91120000
C      -42.56610000     -34.14180000     -69.19850000
C      -43.72780000     -34.07580000     -68.41540000
C      -44.38820000     -32.85510000     -68.14550000
H      -44.63060000     -30.82360000     -68.60610000
H      -41.23440000     -32.97990000     -70.51150000
H      -43.92530000     -34.99320000     -67.82110000
H      -45.26410000     -32.82180000     -67.54210000
C      -41.87640000     -35.40950000     -69.56410000
H      -42.01290000     -36.05410000     -68.76090000
H      -40.84120000     -35.33730000     -69.89040000
C      -42.53090000     -30.56370000     -70.63690000
H      -42.76250000     -29.60450000     -70.20010000
H      -41.41940000     -30.57700000     -70.79770000
S      -42.64010000     -36.20910000     -71.10200000
S      -43.18040000     -30.52450000     -72.34130000
C      -44.45320000     -36.13360000     -70.90920000
H      -45.05870000     -37.02360000     -71.31750000
H      -44.60570000     -36.14200000     -69.80760000
C      -44.95930000     -31.05250000     -72.04000000
H      -45.52990000     -30.13310000     -71.91510000
H      -45.00310000     -31.64030000     -71.07920000
C      -45.47530000     -31.76910000     -73.30110000
H      -45.54580000     -30.98460000     -74.09830000
H      -44.87680000     -32.52850000     -73.68380000
C      -44.96620000     -34.87500000     -71.66210000
H      -44.66130000     -34.79790000     -72.77410000
H      -44.39950000     -34.02370000     -71.10670000
C      -46.48670000     -34.59220000     -71.60620000
C      -47.41650000     -35.47210000     -71.04290000
C      -47.19730000     -33.56050000     -72.33330000
H      -47.28540000     -36.44900000     -70.65970000
C      -48.60280000     -33.69990000     -72.29020000
C      -46.85010000     -32.39570000     -73.16130000
C      -47.93260000     -31.78640000     -73.69610000
S      -49.10650000     -35.09210000     -71.34030000
S      -49.47670000     -32.56440000     -73.23680000
H      -47.93680000     -30.81050000     -74.26680000
