40
Properties=species:S:1:pos:R:3 #=T CELL(abcABC):=T 1.889726e+02=T 90.00000=T Traj:=T positionsangstrom=T Step:=T 0=T Bead:=T pbc="F F F"
C      -43.95980000     -31.43490000     -68.60420000
C      -43.17950000     -31.60980000     -69.81350000
C      -42.65840000     -32.89420000     -70.03030000
C      -42.82310000     -33.91510000     -69.08860000
C      -43.58560000     -33.73670000     -67.94210000
C      -44.18710000     -32.50400000     -67.69180000
H      -44.26370000     -30.40260000     -68.33820000
H      -42.07280000     -32.97050000     -70.88540000
H      -43.72490000     -34.58200000     -67.31490000
H      -44.78020000     -32.55920000     -66.84820000
C      -42.09230000     -35.22640000     -69.33970000
H      -42.18580000     -35.95730000     -68.49730000
H      -41.06970000     -35.05070000     -69.55180000
C      -42.89720000     -30.48530000     -70.73640000
H      -43.60020000     -29.64600000     -70.47340000
H      -41.92320000     -30.03080000     -70.63580000
S      -42.58020000     -36.06130000     -70.88440000
S      -43.11810000     -30.85640000     -72.55310000
C      -44.38860000     -36.12780000     -70.94680000
H      -44.66660000     -37.15660000     -71.26420000
H      -44.78520000     -35.87750000     -69.91190000
C      -44.91480000     -31.35000000     -72.52270000
H      -45.51960000     -30.40140000     -72.50600000
H      -45.01640000     -31.85330000     -71.56480000
C      -45.36230000     -32.18120000     -73.76170000
H      -45.49070000     -31.48910000     -74.59070000
H      -44.59880000     -32.98800000     -74.06980000
C      -44.97120000     -35.09480000     -71.92550000
H      -44.74000000     -35.43460000     -72.99730000
H      -44.31250000     -34.23160000     -71.84930000
C      -46.46130000     -34.79310000     -71.83990000
C      -47.34790000     -35.49410000     -71.00000000
C      -47.16290000     -33.78320000     -72.61750000
H      -46.98550000     -36.14580000     -70.21020000
C      -48.50700000     -33.75560000     -72.34400000
C      -46.77660000     -32.70990000     -73.42440000
C      -47.86420000     -31.90480000     -73.76530000
S      -49.02070000     -34.85440000     -71.10820000
S      -49.46830000     -32.54770000     -73.12590000
H      -47.79650000     -31.13400000     -74.45380000
