40
Properties=species:S:1:pos:R:3 #=T CELL(abcABC):=T 1.889726e+02=T 90.00000=T Traj:=T positionsangstrom=T Step:=T 0=T Bead:=T pbc="F F F"
C      -43.99430000     -32.53390000     -68.09020000
C      -43.03840000     -32.39430000     -69.16840000
C      -42.62070000     -33.56310000     -69.76870000
C      -43.10250000     -34.87080000     -69.43450000
C      -44.04270000     -34.99190000     -68.45140000
C      -44.51490000     -33.81210000     -67.74200000
H      -44.44190000     -31.65890000     -67.69040000
H      -41.79490000     -33.41620000     -70.53760000
H      -44.51690000     -35.96090000     -68.21670000
H      -45.19740000     -34.04270000     -66.97510000
C      -42.58070000     -36.05210000     -70.18860000
H      -43.33640000     -36.90730000     -70.02920000
H      -41.59630000     -36.42620000     -69.92690000
C      -42.49580000     -31.07230000     -69.63530000
H      -42.75380000     -30.25180000     -68.87950000
H      -41.41740000     -31.21550000     -69.78650000
S      -42.39710000     -35.71080000     -72.02550000
S      -43.10730000     -30.67810000     -71.32640000
C      -44.01970000     -35.47420000     -72.73620000
H      -43.90470000     -35.29230000     -73.79270000
H      -44.46090000     -36.45220000     -72.59950000
C      -44.96220000     -30.89260000     -71.14030000
H      -45.54510000     -30.07920000     -70.70550000
H      -45.13600000     -31.80030000     -70.52850000
C      -45.64110000     -31.12110000     -72.51120000
H      -45.71710000     -30.05590000     -73.01570000
H      -45.03350000     -31.69450000     -73.18400000
C      -44.82040000     -34.31000000     -72.20720000
H      -44.41070000     -33.41290000     -72.59300000
H      -44.86450000     -34.13160000     -71.10190000
C      -46.28860000     -34.32560000     -72.54250000
C      -47.00540000     -35.47870000     -72.60390000
C      -47.14440000     -33.14190000     -72.47050000
H      -46.66670000     -36.48140000     -72.56490000
C      -48.50970000     -33.48620000     -72.59530000
C      -46.96730000     -31.74430000     -72.30130000
C      -48.17640000     -31.07160000     -72.20600000
S      -48.73400000     -35.21210000     -72.79950000
S      -49.60530000     -32.17440000     -72.17510000
H      -48.31040000     -30.03160000     -72.07630000
