40
Properties=species:S:1:pos:R:3 #=T CELL(abcABC):=T 1.889726e+02=T 90.00000=T Traj:=T positionsangstrom=T Step:=T 0=T Bead:=T pbc="F F F"
C      -44.10830000     -32.36890000     -68.21530000
C      -43.09070000     -32.34040000     -69.18460000
C      -42.62910000     -33.51240000     -69.74500000
C      -43.01840000     -34.76400000     -69.39200000
C      -44.02550000     -34.83910000     -68.40160000
C      -44.62460000     -33.68930000     -67.87360000
H      -44.31450000     -31.50050000     -67.75840000
H      -41.98880000     -33.41720000     -70.65630000
H      -44.46380000     -35.82110000     -68.16570000
H      -45.42490000     -33.82460000     -67.14630000
C      -42.62330000     -36.04200000     -70.14480000
H      -43.45550000     -36.75900000     -70.19740000
H      -41.79430000     -36.50400000     -69.64090000
C      -42.54400000     -30.97010000     -69.74400000
H      -43.05700000     -30.18710000     -69.14670000
H      -41.57410000     -30.72030000     -69.69940000
S      -42.23930000     -35.77380000     -71.93040000
S      -43.16330000     -30.70490000     -71.49810000
C      -43.98460000     -35.60440000     -72.64320000
H      -43.82400000     -35.45810000     -73.71470000
H      -44.50750000     -36.56870000     -72.51640000
C      -44.92910000     -30.87120000     -71.16140000
H      -45.32220000     -30.12100000     -70.46640000
H      -44.95460000     -31.82790000     -70.66070000
C      -45.74320000     -30.99210000     -72.48680000
H      -45.95520000     -29.98410000     -72.87440000
H      -45.19120000     -31.47790000     -73.26790000
C      -44.79970000     -34.46130000     -71.96610000
H      -44.23890000     -33.57230000     -72.07380000
H      -44.71760000     -34.69780000     -70.87010000
C      -46.26700000     -34.40390000     -72.41520000
C      -47.00770000     -35.54200000     -72.47700000
C      -47.18290000     -33.20190000     -72.31770000
H      -46.71150000     -36.52590000     -72.61460000
C      -48.51340000     -33.56640000     -72.46710000
C      -46.99810000     -31.76140000     -72.33020000
C      -48.18730000     -31.07800000     -72.46630000
S      -48.76500000     -35.30800000     -72.57470000
S      -49.52500000     -32.12260000     -72.46260000
H      -48.22800000     -29.99450000     -72.61120000
