40
Properties=species:S:1:pos:R:3 #=T CELL(abcABC):=T 1.889726e+02=T 90.00000=T Traj:=T positionsangstrom=T Step:=T 0=T Bead:=T pbc="F F F"
C      -43.90090000     -32.26310000     -68.14580000
C      -42.90030000     -32.26190000     -69.13190000
C      -42.44850000     -33.49070000     -69.71310000
C      -42.96400000     -34.71180000     -69.31260000
C      -44.06010000     -34.68010000     -68.42920000
C      -44.51950000     -33.49220000     -67.81870000
H      -44.25380000     -31.30700000     -67.85890000
H      -41.69060000     -33.43130000     -70.41660000
H      -44.39520000     -35.71850000     -68.17480000
H      -45.47800000     -33.45930000     -67.28890000
C      -42.38960000     -36.02200000     -69.94860000
H      -42.90090000     -36.92900000     -69.65710000
H      -41.36450000     -36.13870000     -69.55560000
C      -42.45600000     -30.95170000     -69.70710000
H      -42.57050000     -30.08110000     -69.01020000
H      -41.37990000     -31.06580000     -69.97430000
S      -42.39030000     -35.89410000     -71.85410000
S      -43.13000000     -30.65910000     -71.42130000
C      -44.14270000     -35.60120000     -72.39840000
H      -44.12110000     -35.94150000     -73.45750000
H      -44.86910000     -36.34540000     -71.88350000
C      -44.98680000     -31.01650000     -71.35860000
H      -45.53220000     -30.19450000     -70.80710000
H      -45.19400000     -31.90410000     -70.77430000
C      -45.72500000     -31.13240000     -72.70650000
H      -45.92400000     -30.15280000     -73.03820000
H      -45.09090000     -31.60460000     -73.53400000
C      -44.82530000     -34.21740000     -72.22600000
H      -44.54690000     -33.47910000     -73.00410000
H      -44.57170000     -33.74660000     -71.26270000
C      -46.35920000     -34.35570000     -72.34170000
C      -47.05370000     -35.50240000     -72.18830000
C      -47.23490000     -33.19330000     -72.47780000
H      -46.61260000     -36.51240000     -72.19400000
C      -48.51610000     -33.62050000     -72.49240000
C      -47.01910000     -31.79300000     -72.60540000
C      -48.23360000     -31.14350000     -72.71260000
S      -48.82940000     -35.34540000     -72.40490000
S      -49.57340000     -32.24870000     -72.65760000
H      -48.34780000     -30.03900000     -72.89180000
