40
Properties=species:S:1:pos:R:3 #=T CELL(abcABC):=T 1.889726e+02=T 90.00000=T Traj:=T positionsangstrom=T Step:=T 0=T Bead:=T pbc="F F F"
C      -43.79730000     -32.97570000     -67.81260000
C      -42.95300000     -32.54990000     -68.89720000
C      -42.60100000     -33.44550000     -69.89710000
C      -42.90000000     -34.79520000     -69.74910000
C      -43.78590000     -35.11720000     -68.70020000
C      -44.22780000     -34.25350000     -67.73750000
H      -44.10490000     -32.17040000     -67.13810000
H      -41.98630000     -33.06650000     -70.66910000
H      -44.05320000     -36.17670000     -68.60200000
H      -44.87970000     -34.56670000     -66.89790000
C      -42.41060000     -35.94800000     -70.58940000
H      -42.93590000     -36.92070000     -70.35000000
H      -41.41030000     -36.21620000     -70.32920000
C      -42.56810000     -31.08120000     -69.01070000
H      -43.03030000     -30.43990000     -68.19960000
H      -41.52000000     -30.99560000     -68.99330000
S      -42.51250000     -35.77720000     -72.37920000
S      -43.26970000     -30.28400000     -70.61920000
C      -44.38080000     -35.85470000     -72.54220000
H      -44.59800000     -36.49360000     -73.40890000
H      -44.93830000     -36.25450000     -71.67790000
C      -44.91910000     -31.13290000     -70.85710000
H      -45.52610000     -30.63480000     -70.12580000
H      -44.77610000     -32.22000000     -70.65050000
C      -45.53520000     -31.02850000     -72.28590000
H      -45.77420000     -30.03680000     -72.72250000
H      -44.85590000     -31.41690000     -73.06770000
C      -44.90030000     -34.44790000     -72.91380000
H      -44.47910000     -34.17110000     -73.91400000
H      -44.45330000     -33.70900000     -72.23120000
C      -46.41670000     -34.29320000     -72.95870000
C      -47.18050000     -35.42540000     -73.14180000
C      -47.15520000     -33.16100000     -72.53960000
H      -46.90750000     -36.40970000     -73.50940000
C      -48.52590000     -33.44270000     -72.46830000
C      -46.85860000     -31.75460000     -72.32190000
C      -47.99230000     -31.03040000     -72.05570000
S      -48.90070000     -35.11860000     -72.90710000
S      -49.49380000     -31.99170000     -72.15730000
H      -48.01810000     -29.93530000     -71.93950000
