40
Properties=species:S:1:pos:R:3 #=T CELL(abcABC):=T 1.889726e+02=T 90.00000=T Traj:=T positionsangstrom=T Step:=T 0=T Bead:=T pbc="F F F"
C      -41.70160000     -31.46350000     -69.96650000
C      -42.41300000     -31.87800000     -71.02980000
C      -42.50340000     -33.29310000     -71.27250000
C      -41.92960000     -34.22550000     -70.38750000
C      -41.34680000     -33.75820000     -69.16160000
C      -41.21080000     -32.38030000     -69.05480000
H      -41.59180000     -30.39960000     -69.69100000
H      -42.97380000     -33.62080000     -72.17030000
H      -40.98370000     -34.42770000     -68.32720000
H      -40.62940000     -32.08590000     -68.18390000
C      -42.07410000     -35.69790000     -70.69800000
H      -41.12840000     -36.21390000     -70.40390000
H      -42.32870000     -35.90410000     -71.75920000
C      -43.11570000     -30.97950000     -72.01640000
H      -42.54640000     -29.99440000     -72.14990000
H      -43.15380000     -31.58170000     -72.98120000
S      -43.51450000     -36.56720000     -69.73220000
S      -44.91480000     -30.60580000     -71.54020000
C      -44.94210000     -36.29170000     -70.85370000
H      -44.61270000     -36.10280000     -71.86100000
H      -45.52790000     -37.21770000     -70.80730000
C      -45.28080000     -31.44250000     -69.91890000
H      -44.90330000     -30.95700000     -68.97390000
H      -44.81220000     -32.42310000     -69.84030000
C      -46.80780000     -31.77020000     -69.80400000
H      -47.03790000     -32.55610000     -69.04730000
H      -47.36660000     -30.85400000     -69.40100000
C      -45.86590000     -35.12170000     -70.51060000
H      -45.23490000     -34.26840000     -70.38110000
H      -46.35940000     -35.40080000     -69.55510000
C      -46.86100000     -34.76750000     -71.59490000
C      -47.21300000     -35.64240000     -72.56670000
C      -47.47330000     -33.48300000     -71.79530000
H      -46.79630000     -36.68310000     -72.64820000
C      -48.34640000     -33.48960000     -72.83610000
C      -47.39370000     -32.23060000     -71.13050000
C      -48.32190000     -31.39480000     -71.74820000
S      -48.34160000     -34.95380000     -73.78520000
S      -49.07920000     -31.98000000     -73.20610000
H      -48.35350000     -30.31160000     -71.43640000
