40
Properties=species:S:1:pos:R:3 #=T CELL(abcABC):=T 1.889726e+02=T 90.00000=T Traj:=T positionsangstrom=T Step:=T 0=T Bead:=T pbc="F F F"
C      -43.54110000     -33.88660000     -68.03410000
C      -42.81180000     -33.09340000     -68.87660000
C      -42.07050000     -33.74650000     -69.85720000
C      -42.29730000     -35.14450000     -70.15350000
C      -43.16310000     -35.92590000     -69.34110000
C      -43.72140000     -35.27460000     -68.24860000
H      -43.94050000     -33.50330000     -67.04640000
H      -41.44800000     -33.15450000     -70.58550000
H      -43.25170000     -37.00580000     -69.50300000
H      -44.17740000     -35.76320000     -67.38420000
C      -41.66390000     -35.66610000     -71.40270000
H      -41.62060000     -36.77780000     -71.39750000
H      -40.64820000     -35.25850000     -71.50650000
C      -42.82830000     -31.60410000     -68.60110000
H      -43.39280000     -31.50340000     -67.68420000
H      -41.80610000     -31.19880000     -68.48100000
S      -42.42640000     -35.00660000     -73.00290000
S      -43.67970000     -30.46980000     -69.88050000
C      -44.28780000     -35.31580000     -72.83010000
H      -44.58510000     -35.49550000     -73.85060000
H      -44.45020000     -36.30650000     -72.37450000
C      -45.34480000     -31.25200000     -70.25680000
H      -46.18500000     -31.05510000     -69.55800000
H      -45.10210000     -32.30710000     -70.12100000
C      -45.83830000     -30.94940000     -71.63130000
H      -45.84700000     -29.80430000     -71.61120000
H      -45.07230000     -31.26420000     -72.34300000
C      -44.98250000     -34.15170000     -72.09570000
H      -44.52070000     -33.18480000     -72.34200000
H      -44.91260000     -34.23760000     -70.96980000
C      -46.46800000     -34.02670000     -72.41080000
C      -47.13060000     -35.14520000     -72.77870000
C      -47.38180000     -32.90890000     -72.28590000
H      -46.76030000     -36.14390000     -72.92120000
C      -48.66840000     -33.28490000     -72.59180000
C      -47.20490000     -31.54620000     -72.00210000
C      -48.38610000     -30.87250000     -72.17570000
S      -48.85690000     -34.91370000     -73.04850000
S      -49.76990000     -31.95170000     -72.55170000
H      -48.53450000     -29.74310000     -72.14290000
