40
Properties=species:S:1:pos:R:3 #=T CELL(abcABC):=T 1.889726e+02=T 90.00000=T Traj:=T positionsangstrom=T Step:=T 0=T Bead:=T pbc="F F F"
C      -43.83480000     -33.27660000     -68.02970000
C      -42.94280000     -32.77790000     -68.96540000
C      -42.38490000     -33.65160000     -69.88210000
C      -42.62100000     -35.03510000     -69.84180000
C      -43.54390000     -35.52610000     -68.93940000
C      -44.22860000     -34.63680000     -68.04910000
H      -44.19780000     -32.71600000     -67.25300000
H      -41.57310000     -33.32130000     -70.55340000
H      -43.94620000     -36.53740000     -68.96730000
H      -44.92240000     -35.11510000     -67.37450000
C      -41.93470000     -35.96160000     -70.83780000
H      -42.21490000     -36.98430000     -70.63980000
H      -40.79240000     -35.79680000     -70.78530000
C      -42.74710000     -31.25180000     -68.89800000
H      -43.32270000     -30.89990000     -68.06810000
H      -41.64640000     -30.90930000     -68.81960000
S      -42.42040000     -35.49590000     -72.52880000
S      -43.34970000     -30.41010000     -70.40300000
C      -44.27710000     -35.69780000     -72.53090000
H      -44.47410000     -36.14570000     -73.51300000
H      -44.67170000     -36.51920000     -71.88300000
C      -45.15100000     -31.04100000     -70.48760000
H      -45.74810000     -30.29410000     -69.92200000
H      -45.21360000     -31.98370000     -69.98110000
C      -45.55610000     -31.09340000     -71.96000000
H      -45.37850000     -30.18780000     -72.54250000
H      -45.00630000     -31.88770000     -72.44260000
C      -44.95150000     -34.31360000     -72.52250000
H      -44.35640000     -33.64780000     -73.18490000
H      -44.85530000     -33.91340000     -71.51230000
C      -46.44180000     -34.21820000     -72.77310000
C      -47.18030000     -35.28730000     -73.16820000
C      -47.21990000     -33.06100000     -72.53000000
H      -46.74800000     -36.23730000     -73.40040000
C      -48.55760000     -33.29790000     -72.64430000
C      -46.99760000     -31.64610000     -72.16110000
C      -48.16720000     -30.88340000     -72.09480000
S      -48.97990000     -34.95710000     -73.04380000
S      -49.59220000     -31.92810000     -72.20020000
H      -48.32670000     -29.87250000     -71.93220000
