40
Properties=species:S:1:pos:R:3 #=T CELL(abcABC):=T 1.889726e+02=T 90.00000=T Traj:=T positionsangstrom=T Step:=T 0=T Bead:=T pbc="F F F"
C      -41.43310000     -32.83330000     -71.87010000
C      -42.84270000     -32.84870000     -71.91950000
C      -43.49330000     -34.04130000     -71.63520000
C      -42.74990000     -35.23160000     -71.44530000
C      -41.34580000     -35.15770000     -71.26860000
C      -40.72440000     -33.96090000     -71.44790000
H      -40.95310000     -31.90480000     -71.83760000
H      -44.59510000     -34.02900000     -71.78660000
H      -40.82860000     -36.10490000     -71.08280000
H      -39.63630000     -33.85030000     -71.25870000
C      -43.62140000     -36.47290000     -71.17660000
H      -42.91870000     -37.39940000     -71.21950000
H      -44.32590000     -36.67110000     -71.99230000
C      -43.58690000     -31.57420000     -72.10600000
H      -43.07030000     -30.96710000     -72.81820000
H      -44.62990000     -31.76120000     -72.44500000
S      -44.44820000     -36.40990000     -69.45370000
S      -43.64330000     -30.70320000     -70.47690000
C      -46.24340000     -36.30540000     -69.76220000
H      -46.44400000     -36.76960000     -70.71410000
H      -46.64380000     -36.89640000     -68.91770000
C      -44.71500000     -31.86840000     -69.49320000
H      -44.43360000     -31.74000000     -68.46040000
H      -44.66190000     -32.93680000     -69.77570000
C      -46.23600000     -31.47340000     -69.47340000
H      -46.55560000     -32.04820000     -68.64840000
H      -46.32290000     -30.46390000     -69.16630000
C      -46.78520000     -34.86180000     -69.77140000
H      -46.16750000     -34.20100000     -69.19450000
H      -47.66060000     -34.69950000     -69.11440000
C      -47.02470000     -34.32040000     -71.14170000
C      -47.27560000     -35.02550000     -72.33070000
C      -47.39210000     -32.94030000     -71.39200000
H      -47.03760000     -36.04770000     -72.50160000
C      -48.05390000     -32.70350000     -72.62790000
C      -47.06580000     -31.68630000     -70.71460000
C      -47.60990000     -30.57240000     -71.36140000
S      -47.83470000     -34.08920000     -73.67020000
S      -48.39160000     -30.97070000     -72.87050000
H      -47.70830000     -29.60210000     -70.99840000
