40
Properties=species:S:1:pos:R:3 #=T CELL(abcABC):=T 1.889726e+02=T 90.00000=T Traj:=T positionsangstrom=T Step:=T 0=T Bead:=T pbc="F F F"
C      -43.59770000     -34.05530000     -68.06710000
C      -43.00170000     -33.14050000     -68.93000000
C      -42.48820000     -33.61060000     -70.11410000
C      -42.34710000     -35.00680000     -70.30770000
C      -42.71910000     -35.92330000     -69.29340000
C      -43.50930000     -35.40410000     -68.22860000
H      -44.29020000     -33.69980000     -67.35420000
H      -42.17800000     -32.87550000     -70.87910000
H      -42.53230000     -36.96350000     -69.30950000
H      -44.08680000     -36.06200000     -67.61880000
C      -41.71000000     -35.55640000     -71.62640000
H      -41.86480000     -36.62520000     -71.63650000
H      -40.59150000     -35.43450000     -71.64870000
C      -42.85580000     -31.69170000     -68.57440000
H      -43.10360000     -31.46830000     -67.53630000
H      -41.80950000     -31.35430000     -68.66250000
S      -42.40990000     -34.79090000     -73.18090000
S      -43.77260000     -30.59780000     -69.74230000
C      -44.24670000     -35.13520000     -72.97580000
H      -44.68580000     -35.26880000     -73.93470000
H      -44.31410000     -36.05800000     -72.39290000
C      -45.41430000     -31.28950000     -70.08410000
H      -46.11410000     -31.03030000     -69.30230000
H      -45.20930000     -32.34660000     -70.09870000
C      -45.97400000     -30.80810000     -71.35010000
H      -46.33930000     -29.79530000     -71.25640000
H      -45.27470000     -30.70380000     -72.17550000
C      -45.00970000     -34.01830000     -72.11890000
H      -44.60170000     -33.07310000     -72.38690000
H      -44.70070000     -34.19630000     -71.09960000
C      -46.48510000     -34.19040000     -72.27210000
C      -47.16870000     -35.31260000     -72.64240000
C      -47.35650000     -33.02050000     -72.24930000
H      -46.80090000     -36.27080000     -72.76620000
C      -48.61810000     -33.27940000     -72.70380000
C      -47.11970000     -31.63300000     -71.87220000
C      -48.32180000     -30.97280000     -71.94470000
S      -48.85280000     -35.03150000     -72.98450000
S      -49.61920000     -31.84660000     -72.65050000
H      -48.43020000     -29.84810000     -71.99870000
