40
Properties=species:S:1:pos:R:3 #=T CELL(abcABC):=T 1.889726e+02=T 90.00000=T Traj:=T positionsangstrom=T Step:=T 0=T Bead:=T pbc="F F F"
C      -43.83440000     -33.72630000     -68.04820000
C      -43.03410000     -32.94630000     -68.88300000
C      -42.30650000     -33.56000000     -69.91210000
C      -42.39250000     -34.94500000     -70.13170000
C      -43.18900000     -35.72550000     -69.25070000
C      -43.87130000     -35.12620000     -68.18570000
H      -44.42250000     -33.17940000     -67.22330000
H      -41.53170000     -33.03050000     -70.42070000
H      -43.32830000     -36.75850000     -69.59100000
H      -44.54280000     -35.77040000     -67.58070000
C      -41.73970000     -35.70550000     -71.22490000
H      -41.77290000     -36.80040000     -71.03480000
H      -40.70870000     -35.44410000     -71.22860000
C      -42.84140000     -31.44570000     -68.71790000
H      -43.36360000     -30.93900000     -67.85400000
H      -41.79190000     -31.20760000     -68.61300000
S      -42.37880000     -35.26020000     -72.86260000
S      -43.51720000     -30.67820000     -70.22980000
C      -44.20990000     -35.49810000     -72.70450000
H      -44.61010000     -35.65910000     -73.71190000
H      -44.49340000     -36.31830000     -72.02390000
C      -45.27070000     -31.28560000     -70.16730000
H      -45.88500000     -30.82030000     -69.38260000
H      -45.25350000     -32.36290000     -69.99900000
C      -45.77120000     -30.87360000     -71.52580000
H      -45.98420000     -29.80600000     -71.53630000
H      -44.99770000     -31.09370000     -72.29570000
C      -44.92740000     -34.22710000     -72.23870000
H      -44.41090000     -33.32510000     -72.57440000
H      -44.79540000     -34.26170000     -71.17620000
C      -46.41500000     -34.11130000     -72.51550000
C      -47.20050000     -35.20210000     -72.80900000
C      -47.27410000     -32.92690000     -72.31390000
H      -46.84330000     -36.25270000     -72.94540000
C      -48.62130000     -33.26140000     -72.62470000
C      -47.12020000     -31.54320000     -71.93600000
C      -48.34150000     -30.85010000     -72.05090000
S      -48.92540000     -34.87110000     -73.07600000
S      -49.66650000     -31.87150000     -72.47050000
H      -48.51830000     -29.83980000     -71.66580000
