40
Properties=species:S:1:pos:R:3 #=T CELL(abcABC):=T 1.889726e+02=T 90.00000=T Traj:=T positionsangstrom=T Step:=T 0=T Bead:=T pbc="F F F"
C      -41.29300000     -32.99840000     -71.69540000
C      -42.68540000     -32.81050000     -71.81990000
C      -43.50990000     -33.97410000     -71.87540000
C      -42.93000000     -35.28810000     -71.65120000
C      -41.56670000     -35.39420000     -71.44540000
C      -40.74770000     -34.25810000     -71.42770000
H      -40.68940000     -32.09680000     -71.87870000
H      -44.58080000     -33.86980000     -71.80710000
H      -41.20430000     -36.40700000     -71.22170000
H      -39.63870000     -34.25050000     -71.21590000
C      -43.89270000     -36.41960000     -71.35400000
H      -43.44640000     -37.36930000     -71.41480000
H      -44.79050000     -36.29710000     -71.90990000
C      -43.37910000     -31.50230000     -71.97170000
H      -42.62740000     -30.75880000     -72.29610000
H      -44.27260000     -31.47110000     -72.59740000
S      -44.46270000     -36.40730000     -69.55640000
S      -43.86340000     -30.64130000     -70.36750000
C      -46.28760000     -36.23720000     -69.60760000
H      -46.74020000     -36.87890000     -70.45710000
H      -46.73260000     -36.70570000     -68.78550000
C      -44.90150000     -31.84330000     -69.37280000
H      -44.38780000     -31.88470000     -68.38450000
H      -44.73720000     -32.84910000     -69.78060000
C      -46.38060000     -31.43070000     -69.36930000
H      -46.99650000     -31.93120000     -68.53450000
H      -46.48700000     -30.37960000     -69.10290000
C      -46.72290000     -34.79570000     -69.70020000
H      -46.01340000     -34.13340000     -69.18440000
H      -47.73830000     -34.73350000     -69.27920000
C      -46.86510000     -34.27050000     -71.13300000
C      -47.33430000     -35.06150000     -72.15840000
C      -47.07160000     -32.88040000     -71.49770000
H      -47.13150000     -36.09170000     -72.22140000
C      -47.61140000     -32.66280000     -72.71900000
C      -46.99930000     -31.60980000     -70.73170000
C      -47.50520000     -30.49800000     -71.42850000
S      -47.96630000     -34.10270000     -73.57310000
S      -48.18040000     -31.01590000     -72.99030000
H      -47.58320000     -29.48370000     -71.08650000
