40
Properties=species:S:1:pos:R:3 #=T CELL(abcABC):=T 1.889726e+02=T 90.00000=T Traj:=T positionsangstrom=T Step:=T 0=T Bead:=T pbc="F F F"
C      -41.34530000     -33.09600000     -71.56460000
C      -42.70790000     -32.79630000     -71.57090000
C      -43.67940000     -33.85760000     -71.61540000
C      -43.17370000     -35.18750000     -71.64720000
C      -41.82180000     -35.46430000     -71.63390000
C      -40.88690000     -34.39530000     -71.61490000
H      -40.61400000     -32.22480000     -71.46640000
H      -44.66340000     -33.62780000     -71.80890000
H      -41.66520000     -36.52180000     -71.55830000
H      -39.82160000     -34.56790000     -71.46680000
C      -44.12510000     -36.32150000     -71.46610000
H      -43.78180000     -37.25340000     -71.93070000
H      -45.11900000     -36.16160000     -71.89570000
C      -43.17910000     -31.41550000     -71.74690000
H      -42.46240000     -30.83010000     -72.29480000
H      -43.95130000     -31.45680000     -72.50870000
S      -44.37430000     -36.47340000     -69.61370000
S      -43.76390000     -30.54920000     -70.25740000
C      -46.26210000     -36.22380000     -69.48130000
H      -46.74540000     -36.82350000     -70.31430000
H      -46.59340000     -36.66600000     -68.54920000
C      -44.86080000     -31.76600000     -69.40630000
H      -44.48430000     -31.66900000     -68.35670000
H      -44.67620000     -32.72010000     -69.80320000
C      -46.38350000     -31.59630000     -69.38890000
H      -46.90010000     -32.27520000     -68.74680000
H      -46.54410000     -30.64230000     -68.99040000
C      -46.73130000     -34.79660000     -69.69020000
H      -45.95890000     -34.05820000     -69.29070000
H      -47.61850000     -34.65090000     -69.02720000
C      -47.15300000     -34.31230000     -71.06320000
C      -47.48930000     -35.07990000     -72.16070000
C      -47.28470000     -32.91800000     -71.42550000
H      -47.54120000     -36.17430000     -72.15210000
C      -47.69790000     -32.67760000     -72.73310000
C      -47.02940000     -31.63590000     -70.75380000
C      -47.22800000     -30.51940000     -71.54320000
S      -47.95740000     -34.16980000     -73.65410000
S      -47.86330000     -30.91960000     -73.12480000
H      -46.85570000     -29.53760000     -71.22570000
