40
Properties=species:S:1:pos:R:3 #=T CELL(abcABC):=T 1.889726e+02=T 90.00000=T Traj:=T positionsangstrom=T Step:=T 0=T Bead:=T pbc="F F F"
C      -47.39350000     -36.05110000     -73.62940000
C      -46.90270000     -36.31200000     -72.33740000
C      -47.55410000     -35.77210000     -71.16430000
C      -48.58940000     -34.86530000     -71.35700000
C      -49.02080000     -34.54560000     -72.64570000
C      -48.53370000     -35.25090000     -73.75690000
H      -46.94130000     -36.59790000     -74.44470000
H      -47.14930000     -35.99180000     -70.21630000
H      -49.85530000     -33.84910000     -72.82980000
H      -49.16260000     -35.04960000     -74.63230000
C      -49.23870000     -34.22120000     -70.17250000
H      -49.54960000     -34.93480000     -69.39700000
H      -50.10730000     -33.60040000     -70.55780000
C      -45.74490000     -37.28370000     -72.15390000
H      -46.25760000     -38.18310000     -71.75620000
H      -45.29700000     -37.54770000     -73.14800000
S      -48.23900000     -33.17150000     -69.12240000
S      -44.47130000     -36.78200000     -70.98780000
C      -47.32130000     -32.07480000     -70.40390000
H      -47.99730000     -31.81270000     -71.26350000
H      -47.13960000     -31.15870000     -69.82260000
C      -44.07530000     -35.12970000     -71.69390000
H      -45.02660000     -34.63510000     -71.88750000
H      -43.46410000     -35.21070000     -72.56300000
C      -43.28770000     -34.33500000     -70.53580000
H      -43.96650000     -34.05530000     -69.80500000
H      -42.55270000     -34.97080000     -70.07770000
C      -46.02500000     -32.59180000     -70.96650000
H      -46.21340000     -33.02250000     -71.98530000
H      -45.61060000     -33.38470000     -70.28600000
C      -44.96860000     -31.50910000     -71.21740000
C      -45.23560000     -30.14870000     -71.37540000
C      -43.49520000     -31.75740000     -71.19180000
H      -46.19860000     -29.69560000     -71.55830000
C      -42.69850000     -30.68500000     -71.46800000
C      -42.73060000     -32.99240000     -71.05350000
C      -41.38300000     -32.71660000     -71.14620000
S      -43.73310000     -29.25700000     -71.55750000
S      -40.98360000     -31.04160000     -71.56970000
H      -40.67020000     -33.49390000     -71.20720000
