40
Properties=species:S:1:pos:R:3 #=T CELL(abcABC):=T 1.889726e+02=T 90.00000=T Traj:=T positionsangstrom=T Step:=T 0=T Bead:=T pbc="F F F"
C      -41.60610000     -33.59950000     -70.96000000
C      -42.78710000     -33.20760000     -71.60940000
C      -43.74280000     -34.17710000     -71.98180000
C      -43.56180000     -35.46900000     -71.53760000
C      -42.30750000     -35.86420000     -70.96260000
C      -41.32980000     -34.92830000     -70.75430000
H      -40.80690000     -32.83980000     -70.69980000
H      -44.60040000     -33.78290000     -72.61650000
H      -42.25880000     -36.83590000     -70.44100000
H      -40.41120000     -35.28290000     -70.31340000
C      -44.68180000     -36.50920000     -71.74920000
H      -44.32470000     -37.40480000     -72.23490000
H      -45.57020000     -36.12770000     -72.30100000
C      -42.99210000     -31.74200000     -71.96600000
H      -42.16880000     -31.36940000     -72.66020000
H      -43.92740000     -31.65410000     -72.58460000
S      -44.95490000     -36.94590000     -69.94570000
S      -42.99000000     -30.62100000     -70.48410000
C      -46.62090000     -36.08240000     -69.61770000
H      -47.32980000     -36.60500000     -70.24570000
H      -46.90870000     -36.37100000     -68.60490000
C      -44.27510000     -31.45000000     -69.49210000
H      -43.96690000     -31.53670000     -68.41970000
H      -44.24090000     -32.52630000     -69.80490000
C      -45.79790000     -31.09210000     -69.58840000
H      -46.16460000     -31.77100000     -68.77680000
H      -46.05150000     -30.04860000     -69.36300000
C      -46.54800000     -34.50910000     -69.71290000
H      -45.49630000     -34.26770000     -69.67350000
H      -47.12460000     -34.00800000     -68.94310000
C      -47.06530000     -34.01140000     -71.07910000
C      -47.75540000     -34.79920000     -72.00650000
C      -46.97730000     -32.63260000     -71.46360000
H      -48.22160000     -35.70030000     -71.76040000
C      -47.68640000     -32.39200000     -72.65120000
C      -46.39080000     -31.42790000     -70.92710000
C      -46.60320000     -30.36980000     -71.80280000
S      -48.51630000     -33.78360000     -73.30210000
S      -47.61750000     -30.69510000     -73.17210000
H      -46.31140000     -29.41810000     -71.53080000
