40
Properties=species:S:1:pos:R:3 #=T CELL(abcABC):=T 1.889726e+02=T 90.00000=T Traj:=T positionsangstrom=T Step:=T 0=T Bead:=T pbc="F F F"
C      -41.39600000     -33.40710000     -71.22770000
C      -42.68790000     -33.04080000     -71.69520000
C      -43.64240000     -34.13300000     -71.66940000
C      -43.33700000     -35.49140000     -71.43860000
C      -42.03120000     -35.72220000     -70.98950000
C      -41.10880000     -34.68530000     -70.86460000
H      -40.65450000     -32.67150000     -71.23480000
H      -44.64710000     -33.91600000     -71.99810000
H      -41.67760000     -36.64100000     -70.73660000
H      -40.05680000     -34.87540000     -70.41880000
C      -44.39600000     -36.52720000     -71.68290000
H      -43.96310000     -37.50990000     -71.99860000
H      -45.02040000     -36.08750000     -72.48750000
C      -43.06020000     -31.62920000     -71.90220000
H      -42.24050000     -31.18750000     -72.42710000
H      -44.03370000     -31.50900000     -72.49040000
S      -45.24060000     -37.08110000     -70.10260000
S      -43.19840000     -30.64270000     -70.31050000
C      -46.56810000     -35.98540000     -69.54110000
H      -47.49050000     -36.37230000     -69.98080000
H      -46.61800000     -36.21930000     -68.44030000
C      -44.46050000     -31.74560000     -69.32390000
H      -44.28960000     -31.79000000     -68.21880000
H      -44.38340000     -32.75890000     -69.74820000
C      -45.89240000     -31.23420000     -69.60470000
H      -46.56980000     -31.72680000     -68.93030000
H      -45.89080000     -30.17760000     -69.44080000
C      -46.36820000     -34.50760000     -69.78860000
H      -45.28620000     -34.33630000     -69.86840000
H      -46.66530000     -33.92620000     -68.89350000
C      -47.09580000     -33.93230000     -70.96990000
C      -47.85480000     -34.72060000     -71.79410000
C      -46.97650000     -32.62860000     -71.53480000
H      -47.94480000     -35.83930000     -71.66700000
C      -47.76860000     -32.40520000     -72.64540000
C      -46.39760000     -31.40190000     -71.04280000
C      -46.68580000     -30.36230000     -71.87360000
S      -48.58610000     -33.82160000     -73.19670000
S      -47.49330000     -30.78570000     -73.40460000
H      -46.39440000     -29.30880000     -71.73870000
