40
Properties=species:S:1:pos:R:3 #=T CELL(abcABC):=T 1.889726e+02=T 90.00000=T Traj:=T positionsangstrom=T Step:=T 0=T Bead:=T pbc="F F F"
C      -42.72500000     -35.47240000     -68.73800000
C      -42.67390000     -34.08570000     -68.93690000
C      -42.26460000     -33.69560000     -70.21640000
C      -42.13540000     -34.57590000     -71.33390000
C      -42.07600000     -35.92420000     -71.03890000
C      -42.48290000     -36.40150000     -69.71700000
H      -42.95660000     -35.86980000     -67.76300000
H      -42.10180000     -32.57340000     -70.41300000
H      -41.75780000     -36.62600000     -71.81690000
H      -42.36390000     -37.40490000     -69.46420000
C      -41.95830000     -34.12360000     -72.72720000
H      -42.26790000     -34.85290000     -73.46660000
H      -40.93800000     -34.04330000     -73.12560000
C      -43.02560000     -33.14240000     -67.82080000
H      -43.63640000     -33.73340000     -67.07230000
H      -42.18250000     -32.76180000     -67.24130000
S      -42.54030000     -32.36810000     -73.10430000
S      -43.97410000     -31.65750000     -68.46640000
C      -44.36740000     -32.57760000     -73.45590000
H      -44.90990000     -31.67700000     -73.25360000
H      -44.57800000     -32.68070000     -74.54640000
C      -45.58400000     -32.40500000     -69.09200000
H      -46.36380000     -32.45350000     -68.35030000
H      -45.38960000     -33.36630000     -69.45990000
C      -46.18750000     -31.61110000     -70.32450000
H      -46.42400000     -30.56430000     -70.15680000
H      -45.43290000     -31.77690000     -71.08230000
C      -44.96290000     -33.80490000     -72.70490000
H      -44.86150000     -33.65770000     -71.64500000
H      -44.41760000     -34.70610000     -72.86730000
C      -46.52200000     -33.95680000     -72.91230000
C      -47.06100000     -34.71900000     -73.93970000
C      -47.47650000     -33.16160000     -72.11330000
H      -46.48500000     -35.45350000     -74.52770000
C      -48.77580000     -33.36750000     -72.56350000
C      -47.41540000     -32.18810000     -71.04480000
C      -48.67120000     -31.83640000     -70.58320000
S      -48.81300000     -34.53100000     -73.85650000
S      -49.94840000     -32.52110000     -71.53810000
H      -48.90140000     -30.94840000     -69.91020000
