40
Properties=species:S:1:pos:R:3 #=T CELL(abcABC):=T 1.889726e+02=T 90.00000=T Traj:=T positionsangstrom=T Step:=T 0=T Bead:=T pbc="F F F"
C      -41.61910000     -33.92200000     -71.47920000
C      -42.92150000     -33.48220000     -71.84650000
C      -43.98870000     -34.35940000     -71.77070000
C      -43.74660000     -35.72680000     -71.43580000
C      -42.46400000     -36.13930000     -71.11450000
C      -41.38980000     -35.19370000     -71.09440000
H      -40.90570000     -33.16550000     -71.34500000
H      -44.97910000     -34.12490000     -71.86790000
H      -42.23060000     -37.22240000     -70.85300000
H      -40.34270000     -35.46920000     -70.95850000
C      -44.89930000     -36.64650000     -71.24420000
H      -44.66410000     -37.70160000     -71.60500000
H      -45.72900000     -36.29900000     -71.91590000
C      -43.21300000     -32.02470000     -72.14280000
H      -42.57220000     -31.56060000     -72.88940000
H      -44.20830000     -31.93070000     -72.41540000
S      -45.36750000     -36.71610000     -69.45010000
S      -43.00240000     -30.92770000     -70.58590000
C      -47.00700000     -35.87980000     -69.31510000
H      -47.62560000     -36.29730000     -70.10980000
H      -47.37100000     -35.94530000     -68.30830000
C      -44.24280000     -31.65290000     -69.42580000
H      -43.89380000     -31.45730000     -68.41340000
H      -44.46360000     -32.70740000     -69.69530000
C      -45.67680000     -31.04110000     -69.55860000
H      -46.29220000     -31.44190000     -68.71810000
H      -45.56590000     -29.98630000     -69.36850000
C      -46.87260000     -34.35650000     -69.61100000
H      -45.86890000     -34.02390000     -69.44600000
H      -47.52190000     -33.80620000     -68.79760000
C      -47.29960000     -33.79090000     -70.94600000
C      -47.88380000     -34.48820000     -71.96760000
C      -46.90120000     -32.44420000     -71.45340000
H      -48.32800000     -35.45620000     -71.84760000
C      -47.33150000     -32.20870000     -72.74260000
C      -46.31470000     -31.25730000     -70.90520000
C      -46.31350000     -30.22770000     -71.78580000
S      -48.17160000     -33.57280000     -73.45430000
S      -46.94570000     -30.60400000     -73.44800000
H      -45.97260000     -29.22240000     -71.60480000
