40
Properties=species:S:1:pos:R:3 #=T CELL(abcABC):=T 1.889726e+02=T 90.00000=T Traj:=T positionsangstrom=T Step:=T 0=T Bead:=T pbc="F F F"
C      -41.25240000     -33.67840000     -71.55900000
C      -42.55120000     -33.15440000     -71.87330000
C      -43.61020000     -34.01360000     -71.81790000
C      -43.51140000     -35.32000000     -71.28640000
C      -42.27390000     -35.76330000     -70.88220000
C      -41.13090000     -34.92200000     -70.99040000
H      -40.38840000     -32.98020000     -71.61760000
H      -44.60570000     -33.59320000     -72.08850000
H      -42.13280000     -36.80100000     -70.57700000
H      -40.17380000     -35.52180000     -70.88900000
C      -44.67320000     -36.27710000     -71.33500000
H      -44.40280000     -37.03930000     -72.11690000
H      -45.61940000     -35.74060000     -71.79010000
C      -42.74530000     -31.75980000     -72.30970000
H      -41.77480000     -31.31900000     -72.63180000
H      -43.58980000     -31.48410000     -72.99910000
S      -45.34850000     -37.03500000     -69.77000000
S      -43.20510000     -30.71130000     -70.76480000
C      -46.87550000     -36.19460000     -69.52280000
H      -47.58020000     -36.61470000     -70.20840000
H      -47.17330000     -36.44690000     -68.49400000
C      -44.23740000     -31.79440000     -69.61800000
H      -43.74130000     -31.86330000     -68.71020000
H      -44.28140000     -32.81340000     -70.08320000
C      -45.69040000     -31.35140000     -69.41440000
H      -46.25200000     -32.02910000     -68.76260000
H      -45.80480000     -30.47100000     -68.87180000
C      -46.89220000     -34.59140000     -69.56640000
H      -45.88580000     -34.19970000     -69.37230000
H      -47.58610000     -34.20820000     -68.81220000
C      -47.31350000     -33.96230000     -70.93340000
C      -48.00250000     -34.66700000     -71.87880000
C      -47.06180000     -32.60260000     -71.34720000
H      -48.28330000     -35.72160000     -71.80280000
C      -47.59800000     -32.30190000     -72.62270000
C      -46.41480000     -31.34990000     -70.74100000
C      -46.42280000     -30.33110000     -71.66400000
S      -48.37450000     -33.67580000     -73.34510000
S      -47.34400000     -30.68890000     -73.20480000
H      -46.07750000     -29.34330000     -71.35330000
