40
Properties=species:S:1:pos:R:3 #=T CELL(abcABC):=T 1.889726e+02=T 90.00000=T Traj:=T positionsangstrom=T Step:=T 0=T Bead:=T pbc="F F F"
C      -42.44370000     -35.87740000     -70.18540000
C      -42.52900000     -34.57350000     -69.60620000
C      -42.24490000     -33.45680000     -70.44140000
C      -42.00810000     -33.62970000     -71.80090000
C      -41.81160000     -34.91890000     -72.31600000
C      -42.06770000     -36.01350000     -71.47760000
H      -42.58950000     -36.78560000     -69.57300000
H      -42.30730000     -32.41870000     -70.06600000
H      -41.57280000     -35.05680000     -73.33900000
H      -42.07670000     -36.99220000     -71.95900000
C      -41.98390000     -32.41210000     -72.71790000
H      -42.10380000     -32.71780000     -73.75180000
H      -40.98880000     -31.90810000     -72.69800000
C      -42.92930000     -34.40630000     -68.17500000
H      -43.31900000     -35.33440000     -67.70890000
H      -42.00380000     -34.05140000     -67.63900000
S      -43.16080000     -31.07320000     -72.23480000
S      -44.13250000     -33.09710000     -67.97010000
C      -44.70370000     -31.73540000     -73.06840000
H      -45.51300000     -31.25310000     -72.77260000
H      -44.71740000     -31.63090000     -74.14780000
C      -45.45830000     -33.47930000     -69.17520000
H      -46.21380000     -34.10310000     -68.81090000
H      -44.94490000     -33.84640000     -70.06700000
C      -46.17110000     -32.17970000     -69.77630000
H      -46.51420000     -31.47580000     -69.00560000
H      -45.46940000     -31.68740000     -70.40360000
C      -44.96920000     -33.25140000     -72.85800000
H      -44.63140000     -33.45970000     -71.86480000
H      -44.35330000     -33.79910000     -73.58270000
C      -46.38960000     -33.64790000     -72.91910000
C      -47.02950000     -34.26300000     -74.01300000
C      -47.35640000     -33.24520000     -71.91590000
H      -46.49110000     -34.36200000     -75.02450000
C      -48.66350000     -33.66650000     -72.29560000
C      -47.37340000     -32.59580000     -70.59510000
C      -48.62820000     -32.42140000     -70.12750000
S      -48.73590000     -34.38580000     -73.86370000
S      -49.88390000     -33.07660000     -71.14690000
H      -48.99680000     -31.80340000     -69.35650000
