40
Properties=species:S:1:pos:R:3 #=T CELL(abcABC):=T 1.889726e+02=T 90.00000=T Traj:=T positionsangstrom=T Step:=T 0=T Bead:=T pbc="F F F"
C      -43.82250000     -34.22130000     -74.92350000
C      -44.71710000     -33.19800000     -74.64260000
C      -44.29630000     -32.06260000     -73.93240000
C      -42.95150000     -32.06620000     -73.45010000
C      -42.05330000     -33.08260000     -73.72340000
C      -42.49480000     -34.18930000     -74.56520000
H      -44.06390000     -35.09930000     -75.53240000
H      -45.05650000     -31.28770000     -73.69400000
H      -41.06770000     -33.03150000     -73.37550000
H      -41.82100000     -34.98040000     -74.80940000
C      -42.53950000     -31.03120000     -72.48840000
H      -41.65760000     -30.40210000     -72.89870000
H      -42.09520000     -31.46620000     -71.61580000
C      -46.16640000     -33.30690000     -75.05810000
H      -46.91830000     -32.54450000     -74.69290000
H      -46.07110000     -33.47130000     -76.21750000
S      -43.71440000     -29.78940000     -71.83540000
S      -46.91150000     -34.94190000     -74.46150000
C      -44.17600000     -30.72400000     -70.23050000
H      -43.27410000     -30.88110000     -69.67140000
H      -44.77480000     -30.05120000     -69.60400000
C      -47.06910000     -34.68580000     -72.57900000
H      -47.81320000     -35.34060000     -72.15180000
H      -47.27340000     -33.64570000     -72.36060000
C      -45.83430000     -35.07290000     -71.79130000
H      -45.40760000     -36.02140000     -71.99050000
H      -44.99270000     -34.33650000     -72.07060000
C      -44.99790000     -32.02080000     -70.52920000
H      -44.44100000     -32.75920000     -71.12230000
H      -45.93520000     -31.82600000     -71.14010000
C      -45.64800000     -32.65450000     -69.26030000
C      -45.67660000     -32.14710000     -67.97310000
C      -46.18880000     -34.00760000     -69.30630000
H      -45.53240000     -31.07150000     -67.62550000
C      -46.59540000     -34.42580000     -68.00380000
C      -46.25490000     -35.08600000     -70.29200000
C      -46.80480000     -36.24430000     -69.79310000
S      -46.47210000     -33.16250000     -66.84720000
S      -47.16750000     -36.04700000     -68.07040000
H      -47.01110000     -37.14090000     -70.30650000
