40
Properties=species:S:1:pos:R:3 #=T CELL(abcABC):=T 1.889726e+02=T 90.00000=T Traj:=T positionsangstrom=T Step:=T 0=T Bead:=T pbc="F F F"
C      -42.09800000     -35.78720000     -70.29850000
C      -42.50960000     -34.54380000     -69.66700000
C      -42.40850000     -33.38960000     -70.44150000
C      -41.98740000     -33.44600000     -71.75790000
C      -41.66270000     -34.68140000     -72.36830000
C      -41.70910000     -35.83360000     -71.58610000
H      -41.96930000     -36.60720000     -69.61880000
H      -42.73390000     -32.42510000     -70.10230000
H      -41.40070000     -34.82590000     -73.44380000
H      -41.55260000     -36.84730000     -71.90830000
C      -41.91150000     -32.27300000     -72.68620000
H      -42.03290000     -32.59840000     -73.77840000
H      -40.92670000     -31.85790000     -72.61990000
C      -42.95630000     -34.57730000     -68.25240000
H      -43.47890000     -35.52200000     -67.97880000
H      -42.19490000     -34.41220000     -67.49500000
S      -43.13980000     -30.95990000     -72.39420000
S      -44.22230000     -33.24560000     -67.86710000
C      -44.75050000     -31.61190000     -72.97660000
H      -45.45850000     -31.09910000     -72.33990000
H      -44.93100000     -31.15990000     -74.06310000
C      -45.72760000     -33.71330000     -68.91570000
H      -46.60320000     -33.88020000     -68.27600000
H      -45.57130000     -34.55720000     -69.51170000
C      -46.16630000     -32.49580000     -69.68140000
H      -46.42080000     -31.83080000     -68.87620000
H      -45.32980000     -32.00710000     -70.30830000
C      -44.95920000     -33.13850000     -72.87410000
H      -44.53470000     -33.53460000     -71.94830000
H      -44.45110000     -33.60870000     -73.73760000
C      -46.39410000     -33.53450000     -72.98230000
C      -47.04690000     -34.12790000     -74.06350000
C      -47.40330000     -33.30700000     -71.88160000
H      -46.51740000     -34.41300000     -75.05140000
C      -48.70910000     -33.60400000     -72.35080000
C      -47.33620000     -32.73900000     -70.55910000
C      -48.63280000     -32.81240000     -69.96610000
S      -48.77450000     -34.24570000     -73.96260000
S      -49.91600000     -33.20560000     -71.10580000
H      -48.93050000     -32.61570000     -68.92670000
