40
Properties=species:S:1:pos:R:3 #=T CELL(abcABC):=T 1.889726e+02=T 90.00000=T Traj:=T positionsangstrom=T Step:=T 0=T Bead:=T pbc="F F F"
C      -41.67890000     -34.51730000     -69.77990000
C      -42.34070000     -34.99410000     -70.95630000
C      -42.60020000     -34.19660000     -72.04780000
C      -42.11780000     -32.85790000     -71.95700000
C      -41.47210000     -32.35650000     -70.82590000
C      -41.27050000     -33.16460000     -69.71890000
H      -41.44770000     -35.11610000     -68.92670000
H      -43.12880000     -34.57380000     -72.93000000
H      -41.39200000     -31.27960000     -70.73670000
H      -40.85040000     -32.85110000     -68.77490000
C      -42.25480000     -31.81290000     -73.08530000
H      -42.77680000     -32.21370000     -73.95650000
H      -41.26340000     -31.57850000     -73.45420000
C      -42.86550000     -36.44720000     -70.91790000
H      -42.40750000     -37.06690000     -71.71280000
H      -42.57070000     -36.91210000     -69.97590000
S      -43.15220000     -30.29560000     -72.61630000
S      -44.67590000     -36.41970000     -71.05800000
C      -44.82890000     -31.01080000     -72.56210000
H      -45.58290000     -30.54180000     -73.17890000
H      -44.72460000     -32.06630000     -72.92200000
C      -45.00590000     -35.59790000     -69.46080000
H      -44.01040000     -35.41890000     -68.95790000
H      -45.65400000     -36.21360000     -68.80780000
C      -45.65610000     -34.27440000     -69.54520000
H      -45.57070000     -33.79400000     -68.50380000
H      -44.87050000     -33.69300000     -70.15190000
C      -45.55600000     -31.18300000     -71.21050000
H      -45.62990000     -30.20220000     -70.72490000
H      -44.84530000     -31.81610000     -70.63320000
C      -46.96700000     -31.69360000     -71.34910000
C      -47.88010000     -30.99620000     -72.07920000
C      -47.47580000     -33.01840000     -70.97090000
H      -47.91270000     -29.97920000     -72.49680000
C      -48.66940000     -33.33940000     -71.57620000
C      -46.94820000     -34.17900000     -70.23160000
C      -47.82290000     -35.19510000     -70.23490000
S      -49.30220000     -31.97520000     -72.51260000
S      -49.36610000     -34.82890000     -71.04700000
H      -47.70300000     -36.20160000     -69.75410000
