40
Properties=species:S:1:pos:R:3 #=T CELL(abcABC):=T 1.889726e+02=T 90.00000=T Traj:=T positionsangstrom=T Step:=T 0=T Bead:=T pbc="F F F"
C      -43.30340000     -34.21320000     -74.03740000
C      -44.21390000     -33.21720000     -74.43790000
C      -44.02460000     -31.93040000     -73.93300000
C      -42.97510000     -31.57160000     -73.07570000
C      -42.09890000     -32.59680000     -72.68790000
C      -42.20340000     -33.81230000     -73.25930000
H      -43.41170000     -35.18330000     -74.43520000
H      -44.82530000     -31.23690000     -74.04970000
H      -41.26330000     -32.36510000     -72.03960000
H      -41.40010000     -34.52170000     -73.03570000
C      -42.85440000     -30.18340000     -72.46270000
H      -42.44470000     -29.43620000     -73.18370000
H      -42.17310000     -30.26670000     -71.58850000
C      -45.45830000     -33.57930000     -75.17440000
H      -46.16390000     -32.73730000     -75.10290000
H      -45.25890000     -33.79990000     -76.20250000
S      -44.46380000     -29.46920000     -71.81820000
S      -46.34100000     -35.03100000     -74.60130000
C      -44.87880000     -30.48270000     -70.25970000
H      -44.03310000     -30.59690000     -69.57180000
H      -45.70360000     -29.89190000     -69.85540000
C      -46.77540000     -34.86630000     -72.78720000
H      -47.67360000     -35.52830000     -72.77720000
H      -47.18930000     -33.88160000     -72.55120000
C      -45.65170000     -35.25480000     -71.95330000
H      -45.38530000     -36.25660000     -72.23350000
H      -44.81010000     -34.57400000     -72.19210000
C      -45.34020000     -32.02920000     -70.64590000
H      -44.46620000     -32.55560000     -70.99650000
H      -46.09640000     -32.01750000     -71.42680000
C      -45.94780000     -32.78850000     -69.53070000
C      -46.39130000     -32.20290000     -68.35310000
C      -46.30320000     -34.16340000     -69.60120000
H      -46.35270000     -31.19570000     -68.12360000
C      -46.68910000     -34.69410000     -68.35520000
C      -45.97370000     -35.30870000     -70.48670000
C      -46.11280000     -36.50690000     -69.85700000
S      -47.05560000     -33.42530000     -67.21870000
S      -46.83220000     -36.38250000     -68.22970000
H      -45.97010000     -37.45840000     -70.31750000
