40
Properties=species:S:1:pos:R:3 #=T CELL(abcABC):=T 1.889726e+02=T 90.00000=T Traj:=T positionsangstrom=T Step:=T 0=T Bead:=T pbc="F F F"
C      -42.04040000     -35.44870000     -70.75950000
C      -42.51710000     -34.26290000     -70.14670000
C      -42.43090000     -33.04630000     -70.89650000
C      -41.86270000     -32.98680000     -72.14120000
C      -41.45040000     -34.16830000     -72.77540000
C      -41.55540000     -35.39310000     -72.07590000
H      -42.31650000     -36.38260000     -70.27430000
H      -42.64880000     -32.05860000     -70.38840000
H      -41.22170000     -34.12740000     -73.84400000
H      -41.05400000     -36.33160000     -72.42860000
C      -41.82560000     -31.65180000     -72.90730000
H      -41.92900000     -31.87930000     -73.94390000
H      -40.82730000     -31.15570000     -72.80010000
C      -42.73770000     -34.24760000     -68.66280000
H      -41.77330000     -34.39570000     -68.18880000
H      -43.05430000     -33.23120000     -68.36900000
S      -43.01920000     -30.28410000     -72.53830000
S      -44.11550000     -35.31330000     -68.04680000
C      -44.65520000     -31.09110000     -72.89520000
H      -45.20750000     -30.43820000     -73.52390000
H      -44.47640000     -31.97240000     -73.52520000
C      -45.38120000     -35.24080000     -69.31940000
H      -46.00870000     -36.09730000     -69.11290000
H      -45.04140000     -35.36630000     -70.37570000
C      -46.37970000     -33.94070000     -69.23490000
H      -46.70240000     -33.91130000     -68.10810000
H      -45.75810000     -32.99800000     -69.36820000
C      -45.50260000     -31.64090000     -71.72840000
H      -45.53740000     -30.92270000     -70.89090000
H      -44.96640000     -32.39070000     -71.24670000
C      -46.81370000     -32.20420000     -72.14700000
C      -47.48810000     -31.78360000     -73.30180000
C      -47.61130000     -33.12850000     -71.40040000
H      -47.00590000     -31.20620000     -74.07430000
C      -48.79720000     -33.44090000     -72.09610000
C      -47.53110000     -33.91150000     -70.15370000
C      -48.55560000     -34.79180000     -70.02300000
S      -48.93990000     -32.65300000     -73.64370000
S      -49.71860000     -34.72800000     -71.35290000
H      -48.62770000     -35.45670000     -69.18100000
