40
Properties=species:S:1:pos:R:3 #=T CELL(abcABC):=T 1.889726e+02=T 90.00000=T Traj:=T positionsangstrom=T Step:=T 0=T Bead:=T pbc="F F F"
C      -41.86620000     -35.39940000     -71.80130000
C      -42.23620000     -34.43960000     -70.83800000
C      -42.45590000     -33.06700000     -71.18760000
C      -42.28300000     -32.59530000     -72.52190000
C      -41.94260000     -33.56780000     -73.43360000
C      -41.71330000     -34.93320000     -73.14070000
H      -41.93130000     -36.46020000     -71.54970000
H      -42.73590000     -32.34370000     -70.36340000
H      -41.79640000     -33.25470000     -74.50210000
H      -41.63000000     -35.58200000     -74.00060000
C      -42.32320000     -31.14670000     -72.94020000
H      -42.75520000     -31.17640000     -73.97930000
H      -41.35930000     -30.69900000     -73.00800000
C      -42.28510000     -34.79030000     -69.36020000
H      -41.34560000     -35.24620000     -69.18050000
H      -42.46930000     -33.96710000     -68.65030000
S      -43.24910000     -30.01610000     -71.86850000
S      -43.62020000     -36.09410000     -69.13930000
C      -45.02550000     -30.53090000     -72.21030000
H      -45.79040000     -29.76340000     -72.00370000
H      -45.13610000     -30.70490000     -73.34560000
C      -44.98770000     -35.26940000     -70.07200000
H      -45.52910000     -36.12580000     -70.42260000
H      -44.68220000     -34.74330000     -71.04380000
C      -45.95960000     -34.28460000     -69.22130000
H      -46.16540000     -34.83510000     -68.26570000
H      -45.47940000     -33.32480000     -68.99930000
C      -45.49550000     -31.73840000     -71.38610000
H      -45.40230000     -31.43010000     -70.27710000
H      -44.80570000     -32.60370000     -71.56770000
C      -46.87900000     -32.16480000     -71.73130000
C      -47.60100000     -31.79790000     -72.86780000
C      -47.56970000     -33.24180000     -70.99570000
H      -47.34130000     -30.97080000     -73.53640000
C      -48.83840000     -33.52360000     -71.56920000
C      -47.29500000     -34.10330000     -69.87970000
C      -48.34540000     -34.91180000     -69.62870000
S      -49.14990000     -32.57000000     -72.98440000
S      -49.76790000     -34.67430000     -70.67710000
H      -48.39480000     -35.54070000     -68.70890000
