40
Properties=species:S:1:pos:R:3 #=T CELL(abcABC):=T 1.889726e+02=T 90.00000=T Traj:=T positionsangstrom=T Step:=T 0=T Bead:=T pbc="F F F"
C      -41.87330000     -34.68920000     -69.91410000
C      -42.58320000     -34.90410000     -71.12870000
C      -42.63800000     -33.88360000     -72.15180000
C      -41.99280000     -32.65600000     -71.80010000
C      -41.19810000     -32.51710000     -70.65980000
C      -41.13940000     -33.52400000     -69.70990000
H      -41.91670000     -35.58670000     -69.21930000
H      -43.08490000     -33.98930000     -73.15950000
H      -40.49410000     -31.74660000     -70.55370000
H      -40.60310000     -33.29330000     -68.78740000
C      -41.98640000     -31.53700000     -72.85120000
H      -42.26730000     -31.84150000     -73.87950000
H      -41.00250000     -31.07650000     -72.92550000
C      -43.03400000     -36.34040000     -71.32700000
H      -43.18850000     -36.46570000     -72.39330000
H      -42.18300000     -37.03480000     -71.06590000
S      -43.08180000     -30.04300000     -72.37340000
S      -44.71360000     -36.69100000     -70.59110000
C      -44.87170000     -30.60830000     -72.73400000
H      -45.47740000     -29.65430000     -72.81090000
H      -44.91840000     -31.18470000     -73.69000000
C      -45.02730000     -35.49080000     -69.23070000
H      -44.06680000     -35.31690000     -68.72750000
H      -45.79180000     -36.03220000     -68.56440000
C      -45.58320000     -34.19100000     -69.72550000
H      -45.72280000     -33.45200000     -68.89450000
H      -44.90100000     -33.74460000     -70.50190000
C      -45.46070000     -31.55600000     -71.67620000
H      -45.17940000     -31.06600000     -70.67030000
H      -44.90450000     -32.52390000     -71.72680000
C      -46.88850000     -31.81780000     -71.78810000
C      -47.83860000     -31.22440000     -72.54780000
C      -47.37200000     -33.08540000     -71.17720000
H      -47.74820000     -30.39490000     -73.19220000
C      -48.78050000     -33.28270000     -71.43560000
C      -46.92020000     -34.21190000     -70.40220000
C      -47.94230000     -35.12940000     -70.12020000
S      -49.35460000     -32.09190000     -72.51730000
S      -49.48370000     -34.79630000     -70.93250000
H      -47.86500000     -36.06110000     -69.62020000
