40
Properties=species:S:1:pos:R:3 #=T CELL(abcABC):=T 1.889726e+02=T 90.00000=T Traj:=T positionsangstrom=T Step:=T 0=T Bead:=T pbc="F F F"
C      -42.10730000     -34.83460000     -73.14830000
C      -42.28210000     -34.40550000     -71.83640000
C      -42.36340000     -33.01270000     -71.57680000
C      -42.24920000     -32.07330000     -72.64240000
C      -42.19320000     -32.55260000     -73.97580000
C      -42.06690000     -33.89110000     -74.22770000
H      -41.89990000     -35.86820000     -73.37630000
H      -42.44550000     -32.62460000     -70.53980000
H      -42.07610000     -31.88710000     -74.94570000
H      -42.02850000     -34.23770000     -75.24470000
C      -42.28220000     -30.57120000     -72.40850000
H      -42.65750000     -30.07370000     -73.34760000
H      -41.28070000     -30.20830000     -72.14300000
C      -42.24940000     -35.17560000     -70.51310000
H      -41.26790000     -35.58790000     -70.30750000
H      -42.54350000     -34.51060000     -69.69790000
S      -43.40500000     -29.98210000     -70.97480000
S      -43.38900000     -36.58230000     -70.51960000
C      -44.97000000     -30.67520000     -71.68290000
H      -45.74470000     -29.89250000     -71.58360000
H      -44.94020000     -30.62770000     -72.79130000
C      -45.08250000     -35.74520000     -70.72340000
H      -45.66450000     -36.71290000     -70.93870000
H      -44.99940000     -35.16540000     -71.58370000
C      -45.62820000     -35.00050000     -69.51970000
H      -45.55240000     -35.62230000     -68.62840000
H      -45.05810000     -34.12710000     -69.18780000
C      -45.43310000     -32.06120000     -71.07730000
H      -45.12470000     -32.18850000     -69.99870000
H      -44.74810000     -32.79110000     -71.46400000
C      -46.85390000     -32.39500000     -71.30700000
C      -47.67230000     -31.66780000     -72.13680000
C      -47.47920000     -33.50670000     -70.59920000
H      -47.27340000     -30.85820000     -72.71060000
C      -48.83280000     -33.51340000     -70.93830000
C      -47.08830000     -34.58640000     -69.72160000
C      -48.17430000     -35.26840000     -69.31520000
S      -49.30070000     -32.29320000     -72.10490000
S      -49.77220000     -34.69950000     -69.99380000
H      -48.02810000     -36.13130000     -68.58690000
