40
Properties=species:S:1:pos:R:3 #=T CELL(abcABC):=T 1.889726e+02=T 90.00000=T Traj:=T positionsangstrom=T Step:=T 0=T Bead:=T pbc="F F F"
C      -42.25630000     -34.80410000     -73.14590000
C      -42.09880000     -34.28890000     -71.83170000
C      -42.05320000     -32.88250000     -71.65310000
C      -42.18690000     -32.04830000     -72.73480000
C      -42.38840000     -32.57250000     -74.07890000
C      -42.34590000     -33.94910000     -74.23890000
H      -42.32860000     -35.87380000     -73.32150000
H      -41.89850000     -32.52010000     -70.65030000
H      -42.63350000     -31.94470000     -74.84450000
H      -42.33230000     -34.45070000     -75.19520000
C      -42.41000000     -30.57060000     -72.39810000
H      -42.91670000     -29.93340000     -73.12030000
H      -41.39780000     -30.10480000     -72.18800000
C      -41.97800000     -35.25470000     -70.69350000
H      -41.14780000     -35.93720000     -70.70940000
H      -42.05550000     -34.75160000     -69.71320000
S      -43.40870000     -30.21500000     -70.80650000
S      -43.32990000     -36.49590000     -70.65870000
C      -45.09850000     -30.72100000     -71.21790000
H      -45.69710000     -30.47810000     -70.37420000
H      -45.49140000     -30.00990000     -71.97470000
C      -44.90910000     -35.54400000     -70.84660000
H      -45.41860000     -36.11230000     -71.52500000
H      -44.59920000     -34.66480000     -71.43260000
C      -45.59290000     -35.08490000     -69.51750000
H      -45.77880000     -35.99300000     -68.84620000
H      -44.98970000     -34.29970000     -68.97650000
C      -45.29750000     -32.28440000     -71.51130000
H      -44.67480000     -32.88470000     -70.85180000
H      -44.85300000     -32.37260000     -72.53420000
C      -46.80730000     -32.51750000     -71.50780000
C      -47.71360000     -31.78770000     -72.22780000
C      -47.46950000     -33.52940000     -70.66410000
H      -47.44360000     -31.00450000     -72.90640000
C      -48.89310000     -33.37390000     -70.71550000
C      -47.08100000     -34.60670000     -69.78900000
C      -48.19060000     -35.25500000     -69.34730000
S      -49.39010000     -32.23840000     -71.97390000
S      -49.80760000     -34.54710000     -69.84310000
H      -48.30090000     -36.04830000     -68.63410000
