40
Properties=species:S:1:pos:R:3 #=T CELL(abcABC):=T 1.889726e+02=T 90.00000=T Traj:=T positionsangstrom=T Step:=T 0=T Bead:=T pbc="F F F"
C      -42.34020000     -35.19840000     -72.41450000
C      -41.99930000     -34.51340000     -71.26530000
C      -41.99320000     -33.09010000     -71.33890000
C      -42.14510000     -32.36580000     -72.52510000
C      -42.32220000     -33.16500000     -73.66800000
C      -42.32950000     -34.57310000     -73.64350000
H      -42.48550000     -36.28180000     -72.40410000
H      -41.68580000     -32.46070000     -70.55060000
H      -42.52300000     -32.59490000     -74.58960000
H      -42.53580000     -35.05210000     -74.62910000
C      -42.06720000     -30.84290000     -72.59530000
H      -42.28640000     -30.51190000     -73.59500000
H      -41.11810000     -30.57300000     -72.26320000
C      -41.83580000     -35.26310000     -69.98690000
H      -41.06070000     -36.02820000     -69.95950000
H      -41.70850000     -34.56200000     -69.11880000
S      -43.20200000     -29.97950000     -71.41270000
S      -43.35400000     -36.29130000     -69.45500000
C      -44.89310000     -30.54180000     -71.92970000
H      -45.53550000     -29.86340000     -71.44800000
H      -45.05590000     -30.26620000     -72.96730000
C      -44.96770000     -35.71340000     -70.40430000
H      -45.38340000     -36.59850000     -70.76520000
H      -44.59980000     -35.02520000     -71.22270000
C      -45.92900000     -34.94770000     -69.43510000
H      -46.26550000     -35.64380000     -68.65620000
H      -45.40480000     -34.02420000     -69.06340000
C      -45.36780000     -32.03930000     -71.68730000
H      -44.98130000     -32.42330000     -70.70910000
H      -44.83310000     -32.68880000     -72.38970000
C      -46.84950000     -32.34800000     -71.77590000
C      -47.70450000     -31.53840000     -72.48360000
C      -47.59130000     -33.37780000     -70.94710000
H      -47.28280000     -30.77840000     -73.19590000
C      -48.99150000     -33.37770000     -71.31890000
C      -47.26240000     -34.49320000     -70.05600000
C      -48.40870000     -35.25320000     -69.73930000
S      -49.44040000     -32.00320000     -72.43210000
S      -49.87780000     -34.57120000     -70.36010000
H      -48.47260000     -36.05800000     -69.04140000
