40
Properties=species:S:1:pos:R:3 #=T CELL(abcABC):=T 1.889726e+02=T 90.00000=T Traj:=T positionsangstrom=T Step:=T 0=T Bead:=T pbc="F F F"
C      -42.42850000     -34.51370000     -74.07580000
C      -42.31110000     -34.24600000     -72.65330000
C      -42.47120000     -32.91280000     -72.23720000
C      -42.72830000     -31.83950000     -73.11600000
C      -43.04820000     -32.22230000     -74.43830000
C      -42.74620000     -33.50010000     -74.92540000
H      -42.47910000     -35.51460000     -74.43880000
H      -42.32780000     -32.80930000     -71.15740000
H      -43.08730000     -31.36690000     -75.23310000
H      -42.59960000     -33.60120000     -76.03060000
C      -42.78050000     -30.43640000     -72.66030000
H      -43.29380000     -29.87910000     -73.41160000
H      -41.76440000     -30.01820000     -72.61080000
C      -41.97270000     -35.36080000     -71.70470000
H      -41.11870000     -35.93190000     -71.95180000
H      -41.89850000     -34.96750000     -70.64640000
S      -43.61250000     -30.23540000     -71.02430000
S      -43.37650000     -36.61820000     -71.46690000
C      -45.39970000     -30.48870000     -71.49470000
H      -45.98060000     -30.11100000     -70.63010000
H      -45.69200000     -29.83600000     -72.33710000
C      -44.82850000     -35.59970000     -71.03280000
H      -45.67360000     -36.28360000     -70.99740000
H      -45.04360000     -35.01520000     -71.95190000
C      -44.90480000     -34.74000000     -69.80660000
H      -44.62110000     -35.39430000     -68.96530000
H      -44.29350000     -33.80010000     -69.77720000
C      -45.68190000     -31.95490000     -71.77140000
H      -44.88110000     -32.66060000     -71.44510000
H      -45.74980000     -31.94020000     -72.84460000
C      -47.07970000     -32.38940000     -71.25140000
C      -48.31530000     -31.89520000     -71.59750000
C      -47.22290000     -33.46480000     -70.21180000
H      -48.32260000     -31.11110000     -72.36330000
C      -48.55430000     -33.62740000     -69.83640000
C      -46.35530000     -34.43770000     -69.48720000
C      -47.08260000     -35.25370000     -68.68750000
S      -49.62130000     -32.64430000     -70.76480000
S      -48.84900000     -34.91540000     -68.72920000
H      -46.70620000     -36.09930000     -68.08750000
