40
Properties=species:S:1:pos:R:3 #=T CELL(abcABC):=T 1.889726e+02=T 90.00000=T Traj:=T positionsangstrom=T Step:=T 0=T Bead:=T pbc="F F F"
C      -42.37700000     -34.81860000     -73.30190000
C      -42.15800000     -34.42170000     -71.99180000
C      -42.16720000     -33.07810000     -71.60140000
C      -42.55460000     -32.11420000     -72.55150000
C      -42.84070000     -32.54300000     -73.88660000
C      -42.68910000     -33.86780000     -74.28250000
H      -42.54920000     -35.88840000     -73.52820000
H      -41.86140000     -32.93020000     -70.61740000
H      -43.10180000     -31.72500000     -74.67620000
H      -42.85100000     -34.14550000     -75.35640000
C      -42.60990000     -30.64760000     -72.19390000
H      -43.04040000     -30.02610000     -73.01420000
H      -41.57590000     -30.31450000     -72.04210000
C      -41.93230000     -35.42210000     -70.90840000
H      -40.98620000     -36.00800000     -71.03240000
H      -41.78370000     -34.91420000     -69.94640000
S      -43.47310000     -30.24230000     -70.59320000
S      -43.26460000     -36.65460000     -70.59790000
C      -45.27400000     -30.51980000     -70.98300000
H      -45.79510000     -30.52360000     -70.01190000
H      -45.63470000     -29.55350000     -71.33860000
C      -44.79780000     -35.72730000     -71.09830000
H      -45.53650000     -36.50920000     -71.13660000
H      -44.74710000     -35.33850000     -72.08450000
C      -45.09180000     -34.51940000     -70.18180000
H      -44.57570000     -34.81840000     -69.24710000
H      -44.51560000     -33.70850000     -70.67360000
C      -45.68670000     -31.58320000     -71.97930000
H      -44.91200000     -32.39140000     -72.08130000
H      -45.56300000     -31.22700000     -72.97640000
C      -47.02360000     -32.26320000     -71.74900000
C      -48.21010000     -31.60450000     -72.22070000
C      -47.40160000     -33.30510000     -70.80900000
H      -48.35680000     -30.78870000     -72.93050000
C      -48.74400000     -33.53480000     -70.63010000
C      -46.57050000     -34.26250000     -70.07410000
C      -47.38050000     -35.16270000     -69.44860000
S      -49.75730000     -32.34270000     -71.60830000
S      -49.15060000     -34.96580000     -69.70240000
H      -47.01990000     -36.03750000     -68.81590000
