40
Properties=species:S:1:pos:R:3 #=T CELL(abcABC):=T 1.889726e+02=T 90.00000=T Traj:=T positionsangstrom=T Step:=T 0=T Bead:=T pbc="F F F"
C      -42.11040000     -34.86880000     -73.24990000
C      -42.11420000     -34.39090000     -71.89740000
C      -42.18520000     -33.02560000     -71.62730000
C      -42.46800000     -32.11880000     -72.65750000
C      -42.60790000     -32.58800000     -73.93280000
C      -42.40910000     -33.96070000     -74.24610000
H      -42.04510000     -35.91900000     -73.49120000
H      -42.16520000     -32.62050000     -70.55550000
H      -42.79320000     -31.85450000     -74.73800000
H      -42.50830000     -34.34420000     -75.22720000
C      -42.57710000     -30.64910000     -72.31950000
H      -43.10790000     -30.15650000     -73.11200000
H      -41.60760000     -30.15520000     -72.26650000
C      -41.99260000     -35.32770000     -70.67980000
H      -41.08610000     -35.91270000     -70.75370000
H      -41.76660000     -34.66680000     -69.83720000
S      -43.37290000     -30.20850000     -70.69230000
S      -43.33670000     -36.56300000     -70.51960000
C      -45.15950000     -30.60280000     -71.05730000
H      -45.67170000     -30.53850000     -70.08610000
H      -45.75310000     -29.85600000     -71.73850000
C      -44.86700000     -35.60070000     -71.05340000
H      -45.57850000     -36.30480000     -71.52810000
H      -44.49790000     -34.94030000     -71.92220000
C      -45.44710000     -34.83580000     -69.78090000
H      -45.38670000     -35.52370000     -68.93530000
H      -44.77980000     -34.03320000     -69.55760000
C      -45.35980000     -32.03040000     -71.62140000
H      -44.83310000     -32.73050000     -71.06460000
H      -45.07320000     -32.13250000     -72.65880000
C      -46.83450000     -32.42370000     -71.61270000
C      -47.84380000     -31.66420000     -72.24050000
C      -47.38780000     -33.49860000     -70.83430000
H      -47.66150000     -30.81110000     -72.90710000
C      -48.83180000     -33.50570000     -70.85060000
C      -46.90680000     -34.47760000     -69.98000000
C      -47.93160000     -35.13870000     -69.33300000
S      -49.49730000     -32.24660000     -71.88240000
S      -49.62200000     -34.64580000     -69.82910000
H      -47.91780000     -35.93950000     -68.64650000
