40
Properties=species:S:1:pos:R:3 #=T CELL(abcABC):=T 1.889726e+02=T 90.00000=T Traj:=T positionsangstrom=T Step:=T 0=T Bead:=T pbc="F F F"
C      -41.74760000     -34.88180000     -70.10650000
C      -42.53310000     -34.99930000     -71.27410000
C      -42.61680000     -33.82290000     -72.05850000
C      -41.91680000     -32.66050000     -71.71880000
C      -41.31950000     -32.53420000     -70.47220000
C      -41.22030000     -33.64340000     -69.65450000
H      -41.40400000     -35.77740000     -69.56230000
H      -43.17630000     -33.85990000     -72.98330000
H      -40.93880000     -31.58480000     -70.06800000
H      -40.41280000     -33.51800000     -68.92390000
C      -42.05430000     -31.53340000     -72.76210000
H      -42.36900000     -31.98830000     -73.69960000
H      -41.03310000     -31.15740000     -72.90860000
C      -43.38340000     -36.14950000     -71.68580000
H      -43.83670000     -35.94030000     -72.68700000
H      -42.68070000     -36.96880000     -71.75130000
S      -43.11100000     -30.07800000     -72.37200000
S      -44.73370000     -36.68090000     -70.45270000
C      -44.87470000     -30.50380000     -72.66300000
H      -45.50030000     -29.61970000     -72.44740000
H      -45.06000000     -30.66780000     -73.73830000
C      -44.83930000     -35.32730000     -69.22040000
H      -43.81190000     -35.21060000     -68.85760000
H      -45.32450000     -35.77900000     -68.29840000
C      -45.45700000     -34.08130000     -69.77100000
H      -45.59300000     -33.42440000     -68.90760000
H      -44.69840000     -33.60100000     -70.36910000
C      -45.42700000     -31.69060000     -71.91550000
H      -45.20760000     -31.72010000     -70.84830000
H      -44.96620000     -32.60390000     -72.27020000
C      -46.91450000     -31.98730000     -72.00130000
C      -47.83860000     -31.35010000     -72.75520000
C      -47.44240000     -33.12990000     -71.25050000
H      -47.71930000     -30.43540000     -73.42140000
C      -48.80180000     -33.30800000     -71.47920000
C      -46.85770000     -34.16630000     -70.39410000
C      -47.75820000     -35.10790000     -70.06040000
S      -49.41820000     -31.99040000     -72.48200000
S      -49.41260000     -34.81090000     -70.76220000
H      -47.76870000     -35.85720000     -69.34890000
