40
Properties=species:S:1:pos:R:3 #=T CELL(abcABC):=T 1.889726e+02=T 90.00000=T Traj:=T positionsangstrom=T Step:=T 0=T Bead:=T pbc="F F F"
C      -42.33160000     -34.66180000     -73.51300000
C      -41.95390000     -34.37060000     -72.20510000
C      -42.16860000     -33.02010000     -71.86070000
C      -42.65690000     -32.05960000     -72.72310000
C      -42.95130000     -32.38940000     -74.07840000
C      -42.85210000     -33.75430000     -74.41750000
H      -42.26690000     -35.69260000     -73.90340000
H      -41.78190000     -32.62880000     -70.85660000
H      -43.34330000     -31.71220000     -74.74600000
H      -43.24300000     -34.05700000     -75.36060000
C      -42.72490000     -30.59070000     -72.20120000
H      -43.07930000     -29.93360000     -73.00630000
H      -41.72850000     -30.26000000     -71.86770000
C      -41.55980000     -35.39140000     -71.16550000
H      -40.73080000     -35.99900000     -71.55450000
H      -41.38490000     -34.87320000     -70.17580000
S      -43.78270000     -30.47670000     -70.66470000
S      -43.04860000     -36.60680000     -70.92150000
C      -45.53950000     -30.47510000     -71.16420000
H      -46.18000000     -30.46310000     -70.23780000
H      -45.63970000     -29.57300000     -71.71280000
C      -44.68560000     -35.70460000     -71.20140000
H      -45.41320000     -36.46850000     -71.08270000
H      -44.80750000     -35.24430000     -72.12750000
C      -44.98970000     -34.58040000     -70.22170000
H      -44.57150000     -34.87740000     -69.27570000
H      -44.61400000     -33.61560000     -70.53030000
C      -45.81700000     -31.72310000     -72.15670000
H      -45.12980000     -32.56970000     -71.99640000
H      -45.79300000     -31.21600000     -73.18550000
C      -47.17320000     -32.29490000     -71.70430000
C      -48.41760000     -31.66840000     -71.97760000
C      -47.37950000     -33.41690000     -70.76420000
H      -48.59450000     -30.75910000     -72.53320000
C      -48.70820000     -33.55590000     -70.39880000
C      -46.52290000     -34.36380000     -70.10570000
C      -47.22000000     -35.27330000     -69.40490000
S      -49.75810000     -32.30460000     -71.04520000
S      -48.98080000     -34.87930000     -69.30670000
H      -46.79760000     -36.13560000     -68.94420000
