40
Properties=species:S:1:pos:R:3 #=T CELL(abcABC):=T 1.889726e+02=T 90.00000=T Traj:=T positionsangstrom=T Step:=T 0=T Bead:=T pbc="F F F"
C      -47.80330000     -36.85730000     -70.17040000
C      -46.52950000     -36.52500000     -69.66110000
C      -45.33370000     -36.74830000     -70.28390000
C      -45.33690000     -37.15800000     -71.60880000
C      -46.56880000     -37.46480000     -72.18350000
C      -47.72490000     -37.48580000     -71.46040000
H      -48.73600000     -36.77670000     -69.59310000
H      -44.44110000     -36.38800000     -69.79650000
H      -46.58240000     -37.62750000     -73.24330000
H      -48.66080000     -37.95100000     -71.84110000
C      -44.05340000     -37.08530000     -72.42370000
H      -44.21340000     -36.76720000     -73.46370000
H      -43.36880000     -37.88720000     -72.28680000
C      -46.40760000     -35.87130000     -68.21970000
H      -47.38330000     -35.65410000     -67.89240000
H      -45.96570000     -36.56390000     -67.50330000
S      -42.87820000     -35.69990000     -71.97450000
S      -45.25870000     -34.41790000     -68.17890000
C      -43.72210000     -34.19730000     -72.68010000
H      -43.53570000     -33.96830000     -73.78070000
H      -44.81950000     -34.31310000     -72.60470000
C      -45.99720000     -33.24920000     -69.41290000
H      -47.09030000     -33.00850000     -69.25290000
H      -45.83840000     -33.68220000     -70.37710000
C      -45.31570000     -31.83130000     -69.35090000
H      -45.51010000     -31.39570000     -68.35530000
H      -44.25980000     -31.90010000     -69.23780000
C      -43.40290000     -32.90620000     -71.93700000
H      -42.30830000     -32.61270000     -72.04490000
H      -43.51540000     -32.98340000     -70.85600000
C      -44.24460000     -31.73930000     -72.58570000
C      -43.95760000     -31.25200000     -73.83180000
C      -45.23620000     -30.97680000     -71.94130000
H      -43.34350000     -31.69980000     -74.63210000
C      -45.56760000     -29.82850000     -72.67730000
C      -45.76980000     -30.89090000     -70.49220000
C      -46.50660000     -29.79940000     -70.34440000
S      -44.87470000     -29.83810000     -74.28150000
S      -46.70070000     -28.82430000     -71.77800000
H      -47.13020000     -29.65730000     -69.48720000
