40
Properties=species:S:1:pos:R:3 #=T CELL(abcABC):=T 1.889726e+02=T 90.00000=T Traj:=T positionsangstrom=T Step:=T 0=T Bead:=T pbc="F F F"
C      -42.80970000     -34.71910000     -74.39690000
C      -42.49640000     -34.09470000     -73.15760000
C      -42.71560000     -32.71990000     -72.89580000
C      -43.18670000     -31.92430000     -73.94140000
C      -43.45430000     -32.50500000     -75.21430000
C      -43.32490000     -33.85120000     -75.48690000
H      -42.68820000     -35.75200000     -74.46890000
H      -42.48080000     -32.26490000     -71.93360000
H      -43.95330000     -31.90490000     -75.94730000
H      -43.81230000     -34.33580000     -76.31180000
C      -43.36970000     -30.37270000     -73.74420000
H      -44.02940000     -30.16560000     -74.60930000
H      -42.36020000     -29.86660000     -73.92470000
C      -41.89910000     -34.98710000     -72.11830000
H      -41.00010000     -35.56050000     -72.44650000
H      -41.44280000     -34.31250000     -71.31990000
S      -43.96820000     -29.94360000     -72.09340000
S      -43.04670000     -36.31720000     -71.47740000
C      -45.43780000     -30.94000000     -71.82270000
H      -46.26210000     -30.24760000     -71.86720000
H      -45.60060000     -31.78300000     -72.50130000
C      -44.61800000     -35.50460000     -71.29840000
H      -45.43940000     -36.12510000     -71.75440000
H      -44.41850000     -34.53410000     -71.78960000
C      -44.90810000     -35.18870000     -69.82040000
H      -44.69170000     -36.03050000     -69.18780000
H      -44.31760000     -34.34960000     -69.43460000
C      -45.32340000     -31.72230000     -70.44630000
H      -44.92020000     -31.03870000     -69.68950000
H      -44.63100000     -32.61300000     -70.38220000
C      -46.70530000     -32.16190000     -69.99480000
C      -47.84990000     -31.39570000     -69.88200000
C      -47.02880000     -33.56610000     -69.56760000
H      -47.84450000     -30.29000000     -69.94080000
C      -48.34040000     -33.73890000     -69.16510000
C      -46.31400000     -34.84070000     -69.56140000
C      -47.08850000     -35.83580000     -69.01510000
S      -49.29770000     -32.24340000     -69.40400000
S      -48.74800000     -35.41020000     -68.76290000
H      -46.89890000     -36.90770000     -68.80260000
