40
Properties=species:S:1:pos:R:3 #=T CELL(abcABC):=T 1.889726e+02=T 90.00000=T Traj:=T positionsangstrom=T Step:=T 0=T Bead:=T pbc="F F F"
C      -48.05150000     -36.04440000     -73.02350000
C      -47.21080000     -36.02770000     -71.96980000
C      -47.60530000     -35.40020000     -70.73580000
C      -48.58830000     -34.44220000     -70.70840000
C      -49.38020000     -34.36830000     -71.86830000
C      -49.17890000     -35.20320000     -72.94290000
H      -47.85310000     -36.62110000     -73.90050000
H      -46.96200000     -35.40310000     -69.85620000
H      -50.20450000     -33.65430000     -71.98680000
H      -49.92490000     -35.36170000     -73.72350000
C      -48.89110000     -33.49490000     -69.52940000
H      -49.79450000     -33.76230000     -68.92140000
H      -49.09950000     -32.51340000     -70.00290000
C      -46.13700000     -37.14950000     -71.85380000
H      -46.63360000     -37.98490000     -71.34540000
H      -45.96840000     -37.52210000     -72.87020000
S      -47.46470000     -33.38290000     -68.39480000
S      -44.53110000     -36.80820000     -71.03460000
C      -46.56330000     -31.94800000     -69.19230000
H      -47.30350000     -31.10350000     -69.31740000
H      -45.75060000     -31.54690000     -68.53490000
C      -44.03760000     -35.14050000     -71.80450000
H      -44.84760000     -34.45490000     -71.84890000
H      -43.58650000     -35.24020000     -72.78860000
C      -43.05070000     -34.37530000     -70.96110000
H      -43.28390000     -34.28740000     -69.82150000
H      -42.16400000     -35.01150000     -70.94020000
C      -45.85520000     -32.47190000     -70.45340000
H      -46.66520000     -32.67040000     -71.20200000
H      -45.50430000     -33.46330000     -70.23780000
C      -44.83840000     -31.57780000     -71.11670000
C      -45.20790000     -30.31080000     -71.37960000
C      -43.47830000     -31.94680000     -71.62350000
H      -46.20610000     -29.87650000     -71.48870000
C      -42.81760000     -30.84620000     -72.17280000
C      -42.59710000     -33.08910000     -71.60980000
C      -41.37590000     -32.86190000     -72.17290000
S      -43.98210000     -29.47850000     -72.40420000
S      -41.22560000     -31.25820000     -72.77990000
H      -40.57850000     -33.61480000     -72.42250000
