40
Properties=species:S:1:pos:R:3 #=T CELL(abcABC):=T 1.889726e+02=T 90.00000=T Traj:=T positionsangstrom=T Step:=T 0=T Bead:=T pbc="F F F"
C      -42.25650000     -32.64840000     -73.53740000
C      -43.48740000     -32.55340000     -74.21550000
C      -44.34630000     -31.51600000     -73.82360000
C      -43.98270000     -30.67190000     -72.77980000
C      -42.83860000     -30.88110000     -72.08190000
C      -41.95620000     -31.81360000     -72.50240000
H      -41.60790000     -33.54170000     -73.77640000
H      -45.20030000     -31.21820000     -74.50690000
H      -42.75980000     -30.37650000     -71.13180000
H      -41.09570000     -31.98190000     -71.92880000
C      -44.97410000     -29.50680000     -72.28160000
H      -44.97140000     -28.48850000     -72.77110000
H      -44.66370000     -29.39520000     -71.16730000
C      -44.03590000     -33.61200000     -75.21940000
H      -44.86400000     -33.15590000     -75.72930000
H      -43.23090000     -33.99680000     -75.85870000
S      -46.71550000     -30.10190000     -72.08930000
S      -44.56920000     -35.22050000     -74.39560000
C      -46.62060000     -31.41820000     -70.71670000
H      -45.49560000     -31.57270000     -70.81770000
H      -46.81650000     -30.99840000     -69.78060000
C      -45.45790000     -34.67860000     -72.87420000
H      -46.07680000     -35.60260000     -72.63020000
H      -46.07490000     -33.86570000     -73.20040000
C      -44.56410000     -34.24830000     -71.70880000
H      -43.52560000     -34.48360000     -71.93360000
H      -44.66640000     -33.11990000     -71.55510000
C      -47.57160000     -32.61300000     -70.93970000
H      -47.35850000     -33.16820000     -71.90320000
H      -48.56470000     -32.16700000     -70.94670000
C      -47.29310000     -33.59490000     -69.76600000
C      -48.12320000     -33.65440000     -68.66980000
C      -46.16170000     -34.49330000     -69.69800000
H      -48.81280000     -32.87640000     -68.34530000
C      -46.23740000     -35.26800000     -68.50690000
C      -45.02910000     -34.86740000     -70.49420000
C      -44.20240000     -35.71550000     -69.81340000
S      -47.64760000     -34.96800000     -67.53080000
S      -44.89530000     -36.36730000     -68.37770000
H      -43.20570000     -36.03650000     -70.10810000
