40
Properties=species:S:1:pos:R:3 #=T CELL(abcABC):=T 1.889726e+02=T 90.00000=T Traj:=T positionsangstrom=T Step:=T 0=T Bead:=T pbc="F F F"
C      -47.73610000     -36.74760000     -69.83850000
C      -46.40100000     -36.40440000     -69.38120000
C      -45.25520000     -36.74450000     -70.19780000
C      -45.43260000     -37.23730000     -71.46140000
C      -46.71770000     -37.44860000     -71.94550000
C      -47.85710000     -37.29090000     -71.13400000
H      -48.59060000     -36.29560000     -69.39560000
H      -44.30150000     -36.48570000     -69.79970000
H      -46.84840000     -37.91960000     -72.91310000
H      -48.90570000     -37.39840000     -71.49780000
C      -44.20880000     -37.35210000     -72.34710000
H      -44.54980000     -37.66620000     -73.32170000
H      -43.72040000     -38.33040000     -72.03300000
C      -46.25710000     -35.66740000     -68.08510000
H      -47.19700000     -35.33770000     -67.58100000
H      -45.66820000     -36.25610000     -67.37770000
S      -43.16930000     -35.81480000     -72.27410000
S      -45.08550000     -34.25850000     -68.32100000
C      -44.28170000     -34.48390000     -72.62470000
H      -44.56680000     -34.52240000     -73.70980000
H      -45.15650000     -34.66320000     -72.02150000
C      -46.05470000     -33.15430000     -69.43420000
H      -47.09390000     -33.07730000     -69.12840000
H      -46.00700000     -33.59140000     -70.45430000
C      -45.37390000     -31.76210000     -69.37010000
H      -45.65200000     -31.21670000     -68.38730000
H      -44.24340000     -31.88740000     -69.27630000
C      -43.55470000     -33.10780000     -72.18030000
H      -42.49260000     -33.11950000     -72.51620000
H      -43.40080000     -33.16420000     -71.06840000
C      -44.20950000     -31.81360000     -72.64090000
C      -43.87770000     -31.33720000     -73.89900000
C      -45.02860000     -30.94250000     -71.89360000
H      -43.25950000     -31.90830000     -74.63450000
C      -45.38820000     -29.84900000     -72.66700000
C      -45.67300000     -30.86500000     -70.56400000
C      -46.45380000     -29.78110000     -70.40170000
S      -44.80970000     -29.86550000     -74.29760000
S      -46.48110000     -28.74640000     -71.81900000
H      -46.98030000     -29.55500000     -69.54870000
