40
Properties=species:S:1:pos:R:3 #=T CELL(abcABC):=T 1.889726e+02=T 90.00000=T Traj:=T positionsangstrom=T Step:=T 0=T Bead:=T pbc="F F F"
C      -43.18210000     -31.33680000     -74.01210000
C      -44.37130000     -31.88770000     -74.45770000
C      -45.56220000     -31.32230000     -73.93240000
C      -45.62450000     -30.23900000     -73.02040000
C      -44.45110000     -29.56580000     -72.79830000
C      -43.21670000     -30.18230000     -73.22350000
H      -42.15140000     -31.74280000     -74.20550000
H      -46.50590000     -31.78350000     -74.18650000
H      -44.53890000     -28.61900000     -72.24000000
H      -42.31210000     -29.66740000     -72.92310000
C      -46.92740000     -29.73870000     -72.43560000
H      -47.66450000     -29.43960000     -73.19330000
H      -46.79870000     -28.98990000     -71.74950000
C      -44.56880000     -33.16680000     -75.18990000
H      -45.60820000     -33.41670000     -75.24970000
H      -44.18450000     -33.08600000     -76.20790000
S      -47.91280000     -31.10340000     -71.64590000
S      -43.51680000     -34.55610000     -74.47610000
C      -46.67200000     -31.19870000     -70.29190000
H      -46.01480000     -30.34580000     -70.41810000
H      -47.19420000     -31.09980000     -69.37080000
C      -44.34350000     -35.02840000     -72.79260000
H      -44.53670000     -36.10300000     -72.94600000
H      -45.30710000     -34.50480000     -72.88600000
C      -43.56450000     -34.70300000     -71.52750000
H      -42.57980000     -35.17390000     -71.53150000
H      -43.46600000     -33.64820000     -71.30640000
C      -45.70460000     -32.35880000     -70.25720000
H      -44.86480000     -32.00380000     -69.69240000
H      -45.28270000     -32.75540000     -71.26530000
C      -46.18150000     -33.61400000     -69.44980000
C      -47.06270000     -33.65640000     -68.39430000
C      -45.46350000     -34.83980000     -69.60120000
H      -47.89380000     -32.98840000     -68.16790000
C      -45.87880000     -35.79220000     -68.70660000
C      -44.29390000     -35.30650000     -70.28330000
C      -43.78010000     -36.54040000     -69.89480000
S      -47.00590000     -35.20430000     -67.48230000
S      -44.72570000     -37.13610000     -68.55540000
H      -42.90630000     -37.02740000     -70.35850000
