40
Properties=species:S:1:pos:R:3 #=T CELL(abcABC):=T 1.889726e+02=T 90.00000=T Traj:=T positionsangstrom=T Step:=T 0=T Bead:=T pbc="F F F"
C      -43.41620000     -34.84770000     -74.25340000
C      -42.62140000     -34.18940000     -73.26760000
C      -42.65590000     -32.82170000     -73.16000000
C      -43.45740000     -32.04520000     -74.10850000
C      -44.24850000     -32.71090000     -75.03980000
C      -44.24730000     -34.10710000     -75.10240000
H      -43.45970000     -35.94460000     -74.39680000
H      -41.93400000     -32.24250000     -72.46290000
H      -44.86410000     -32.10130000     -75.76380000
H      -44.82170000     -34.65670000     -75.81240000
C      -43.50470000     -30.57300000     -74.06200000
H      -44.21730000     -30.20410000     -74.73350000
H      -42.54650000     -30.14180000     -74.11970000
C      -41.71410000     -35.03390000     -72.39990000
H      -40.93530000     -35.59640000     -72.92430000
H      -41.03140000     -34.43570000     -71.79900000
S      -43.98740000     -30.06560000     -72.33380000
S      -42.52650000     -36.25260000     -71.36370000
C      -45.65530000     -30.92850000     -71.99750000
H      -46.52120000     -30.27490000     -72.16790000
H      -45.67180000     -31.76880000     -72.65750000
C      -44.30430000     -35.68590000     -71.18920000
H      -44.74550000     -36.67220000     -71.03750000
H      -44.65300000     -35.29460000     -72.15530000
C      -44.60280000     -34.67730000     -70.05830000
H      -43.98580000     -34.90300000     -69.24470000
H      -44.20450000     -33.71890000     -70.33690000
C      -45.63410000     -31.32890000     -70.50880000
H      -45.33640000     -30.47700000     -69.91930000
H      -44.78380000     -32.01440000     -70.48860000
C      -46.84180000     -32.01580000     -69.96480000
C      -48.02660000     -31.40690000     -69.71100000
C      -46.94250000     -33.41870000     -69.61830000
H      -48.11640000     -30.34010000     -69.77510000
C      -48.25860000     -33.76060000     -69.19370000
C      -46.07240000     -34.55650000     -69.64760000
C      -46.78890000     -35.70060000     -69.17120000
S      -49.30460000     -32.34340000     -68.96520000
S      -48.40170000     -35.36980000     -68.64220000
H      -46.41140000     -36.66920000     -69.26420000
