40
Properties=species:S:1:pos:R:3 #=T CELL(abcABC):=T 1.889726e+02=T 90.00000=T Traj:=T positionsangstrom=T Step:=T 0=T Bead:=T pbc="F F F"
C      -42.71710000     -32.01010000     -73.31410000
C      -43.98520000     -32.26700000     -73.98200000
C      -45.03590000     -31.38340000     -73.67530000
C      -44.95110000     -30.31470000     -72.81530000
C      -43.73230000     -30.03540000     -72.22340000
C      -42.69760000     -30.93740000     -72.43510000
H      -41.87890000     -32.59650000     -73.52980000
H      -45.87210000     -31.52470000     -74.23300000
H      -43.63200000     -29.18280000     -71.57280000
H      -41.74740000     -30.76150000     -71.93110000
C      -46.03210000     -29.34260000     -72.64640000
H      -46.39940000     -28.92300000     -73.57760000
H      -45.58000000     -28.42190000     -72.15690000
C      -44.11190000     -33.37730000     -74.98550000
H      -45.13980000     -33.42230000     -75.30500000
H      -43.59590000     -33.03810000     -75.88910000
S      -47.58580000     -29.95330000     -71.79010000
S      -43.45160000     -35.04190000     -74.45340000
C      -46.93170000     -31.23230000     -70.67310000
H      -45.90480000     -30.96380000     -70.48830000
H      -47.52060000     -31.09630000     -69.71110000
C      -44.41530000     -35.57490000     -73.03650000
H      -44.29490000     -36.63730000     -73.00800000
H      -45.49130000     -35.38690000     -73.19630000
C      -44.06000000     -34.80020000     -71.73720000
H      -42.99490000     -34.65910000     -71.64800000
H      -44.57420000     -33.88170000     -71.90990000
C      -47.02970000     -32.74470000     -71.09770000
H      -46.29130000     -32.90950000     -71.89040000
H      -47.98450000     -32.82420000     -71.57610000
C      -46.80340000     -33.72590000     -69.94930000
C      -47.64090000     -33.69730000     -68.84080000
C      -45.80440000     -34.87430000     -69.78610000
H      -48.46050000     -32.95260000     -68.88630000
C      -46.01990000     -35.52560000     -68.59910000
C      -44.54990000     -35.36330000     -70.43960000
C      -43.99850000     -36.36930000     -69.74670000
S      -47.34830000     -34.91540000     -67.62300000
S      -44.87930000     -36.81140000     -68.32150000
H      -43.10740000     -36.95580000     -69.89640000
