40
Properties=species:S:1:pos:R:3 #=T CELL(abcABC):=T 1.889726e+02=T 90.00000=T Traj:=T positionsangstrom=T Step:=T 0=T Bead:=T pbc="F F F"
C      -43.32440000     -31.16480000     -73.98690000
C      -44.45950000     -31.90380000     -74.40490000
C      -45.73260000     -31.59180000     -73.91550000
C      -45.95160000     -30.44920000     -73.07290000
C      -44.85260000     -29.62570000     -72.85150000
C      -43.55220000     -29.99550000     -73.35230000
H      -42.32490000     -31.54340000     -74.24140000
H      -46.55920000     -32.25960000     -74.13350000
H      -45.07100000     -28.77890000     -72.28080000
H      -42.65750000     -29.42920000     -73.13760000
C      -47.38380000     -30.07770000     -72.73650000
H      -48.11730000     -30.32500000     -73.47620000
H      -47.48710000     -28.98620000     -72.45680000
C      -44.29070000     -33.12260000     -75.24350000
H      -45.30140000     -33.56730000     -75.44670000
H      -43.91790000     -32.94160000     -76.19880000
S      -48.19630000     -31.08740000     -71.36650000
S      -43.19800000     -34.46940000     -74.43250000
C      -47.00560000     -31.13230000     -69.90540000
H      -46.43950000     -30.22110000     -69.92730000
H      -47.51210000     -31.18120000     -68.92040000
C      -44.13800000     -34.88360000     -72.90050000
H      -44.15830000     -36.01030000     -72.96430000
H      -45.19580000     -34.48550000     -72.98450000
C      -43.49410000     -34.43310000     -71.55790000
H      -42.47810000     -34.78320000     -71.46120000
H      -43.45520000     -33.37720000     -71.33890000
C      -45.85660000     -32.22790000     -70.06710000
H      -44.87740000     -31.75120000     -69.78730000
H      -45.73330000     -32.44860000     -71.08190000
C      -45.93350000     -33.54770000     -69.23900000
C      -46.86290000     -33.72660000     -68.25960000
C      -45.18180000     -34.74700000     -69.44970000
H      -47.53260000     -33.02490000     -67.78920000
C      -45.57510000     -35.82550000     -68.60270000
C      -44.15780000     -35.16840000     -70.39980000
C      -43.66040000     -36.43790000     -70.12670000
S      -46.89660000     -35.37800000     -67.50080000
S      -44.59370000     -37.22970000     -68.92030000
H      -43.07020000     -37.00780000     -70.69340000
