40
Properties=species:S:1:pos:R:3 #=T CELL(abcABC):=T 1.889726e+02=T 90.00000=T Traj:=T positionsangstrom=T Step:=T 0=T Bead:=T pbc="F F F"
C      -44.49500000     -30.65880000     -74.44460000
C      -45.13020000     -31.89130000     -74.46040000
C      -46.34480000     -32.11010000     -73.74290000
C      -46.88640000     -31.04360000     -72.99530000
C      -46.26190000     -29.80140000     -73.01540000
C      -45.04360000     -29.64610000     -73.68180000
H      -43.57460000     -30.57500000     -75.00940000
H      -46.63530000     -33.17440000     -73.63470000
H      -46.83220000     -28.96290000     -72.60180000
H      -44.70020000     -28.57400000     -73.70260000
C      -48.23380000     -31.17280000     -72.38730000
H      -48.68660000     -32.01340000     -72.95350000
H      -48.95120000     -30.30720000     -72.44070000
C      -44.50460000     -33.02090000     -75.15650000
H      -45.12610000     -33.90050000     -75.13340000
H      -44.26270000     -32.79460000     -76.20060000
S      -48.05740000     -31.68300000     -70.57450000
S      -42.86460000     -33.52880000     -74.30410000
C      -46.40330000     -31.13120000     -70.09400000
H      -46.16680000     -30.18980000     -70.61170000
H      -46.54240000     -30.91400000     -69.07600000
C      -43.65580000     -34.58330000     -73.01680000
H      -43.45820000     -35.63370000     -73.24970000
H      -44.69580000     -34.52800000     -73.07100000
C      -43.07780000     -34.34150000     -71.56040000
H      -42.04580000     -34.66970000     -71.72380000
H      -43.21420000     -33.27180000     -71.35110000
C      -45.36740000     -32.23100000     -70.21930000
H      -44.44620000     -31.85400000     -69.67810000
H      -45.01790000     -32.19390000     -71.26980000
C      -45.64190000     -33.56600000     -69.49580000
C      -46.49500000     -33.66430000     -68.44680000
C      -44.87620000     -34.82010000     -69.72590000
H      -47.07530000     -32.82110000     -68.06450000
C      -45.18380000     -35.74810000     -68.73910000
C      -43.73020000     -35.25800000     -70.56040000
C      -43.24210000     -36.51230000     -70.22560000
S      -46.44590000     -35.24520000     -67.62850000
S      -44.26980000     -37.23870000     -68.93660000
H      -42.46500000     -37.08430000     -70.65500000
