40
Properties=species:S:1:pos:R:3 #=T CELL(abcABC):=T 1.889726e+02=T 90.00000=T Traj:=T positionsangstrom=T Step:=T 0=T Bead:=T pbc="F F F"
C      -43.86270000     -30.66000000     -74.19470000
C      -44.72290000     -31.76810000     -74.32540000
C      -46.02800000     -31.66950000     -73.84140000
C      -46.49490000     -30.51200000     -73.23890000
C      -45.60410000     -29.45080000     -72.90220000
C      -44.32680000     -29.56740000     -73.45490000
H      -42.87210000     -30.65040000     -74.68480000
H      -46.62820000     -32.57800000     -73.94980000
H      -45.86350000     -28.60800000     -72.23030000
H      -43.71370000     -28.65470000     -73.21140000
C      -47.90300000     -30.47440000     -72.59580000
H      -48.61710000     -30.91530000     -73.26110000
H      -48.17000000     -29.50240000     -72.26750000
C      -44.23940000     -32.91550000     -75.11470000
H      -45.09500000     -33.44330000     -75.48280000
H      -43.76600000     -32.48740000     -75.99110000
S      -48.21350000     -31.61820000     -71.05420000
S      -42.96980000     -34.02400000     -74.41060000
C      -46.64030000     -31.25720000     -70.08510000
H      -46.25030000     -30.22970000     -70.39110000
H      -46.95200000     -31.19010000     -69.04510000
C      -43.67830000     -35.05660000     -72.97480000
H      -43.27000000     -36.10900000     -73.05140000
H      -44.72520000     -35.08570000     -72.94560000
C      -43.36320000     -34.56780000     -71.58380000
H      -42.29820000     -34.60270000     -71.50160000
H      -43.56620000     -33.48090000     -71.57990000
C      -45.51490000     -32.24450000     -70.21230000
H      -44.61130000     -31.74980000     -69.75740000
H      -45.22270000     -32.54590000     -71.18700000
C      -45.71020000     -33.57450000     -69.33890000
C      -46.64520000     -33.64470000     -68.32970000
C      -45.09410000     -34.87480000     -69.61260000
H      -47.17160000     -32.83720000     -67.84340000
C      -45.43220000     -35.80620000     -68.60950000
C      -44.09660000     -35.38490000     -70.54800000
C      -43.69140000     -36.69350000     -70.28380000
S      -46.64950000     -35.16530000     -67.48310000
S      -44.45030000     -37.34180000     -68.80840000
H      -42.74650000     -37.20780000     -70.70440000
