40
Properties=species:S:1:pos:R:3 #=T CELL(abcABC):=T 1.889726e+02=T 90.00000=T Traj:=T positionsangstrom=T Step:=T 0=T Bead:=T pbc="F F F"
C      -44.16610000     -30.71420000     -74.21860000
C      -44.99190000     -31.84140000     -74.26450000
C      -46.31930000     -31.88980000     -73.77620000
C      -46.84300000     -30.71540000     -73.11220000
C      -46.01980000     -29.53970000     -73.07390000
C      -44.71890000     -29.59870000     -73.62230000
H      -43.16810000     -30.66240000     -74.55470000
H      -46.95990000     -32.78540000     -73.79850000
H      -46.43070000     -28.69120000     -72.57070000
H      -44.09910000     -28.73180000     -73.58240000
C      -48.15310000     -30.71740000     -72.47130000
H      -49.02620000     -31.05370000     -73.03210000
H      -48.35450000     -29.68870000     -72.19390000
C      -44.39340000     -33.00000000     -74.98330000
H      -45.10460000     -33.75620000     -75.17150000
H      -44.18520000     -32.70520000     -75.98740000
S      -48.11190000     -31.86070000     -70.94660000
S      -42.85850000     -33.78440000     -74.45000000
C      -46.60130000     -31.16590000     -70.14390000
H      -46.26520000     -30.35430000     -70.75710000
H      -46.81080000     -30.70450000     -69.11620000
C      -43.55000000     -34.72240000     -73.00830000
H      -43.26810000     -35.75530000     -73.07420000
H      -44.66050000     -34.73070000     -73.11370000
C      -43.17380000     -34.39170000     -71.54450000
H      -42.07720000     -34.58450000     -71.54960000
H      -43.32890000     -33.33630000     -71.27450000
C      -45.37910000     -32.17290000     -70.03920000
H      -44.43470000     -31.67200000     -69.70280000
H      -45.07030000     -32.40440000     -71.11290000
C      -45.54970000     -33.53990000     -69.31140000
C      -46.42810000     -33.65090000     -68.27180000
C      -44.87510000     -34.80970000     -69.58050000
H      -47.17280000     -32.87740000     -68.09550000
C      -45.35650000     -35.77600000     -68.71950000
C      -43.94280000     -35.27800000     -70.55480000
C      -43.67160000     -36.61550000     -70.38420000
S      -46.36720000     -35.22940000     -67.47710000
S      -44.48190000     -37.27510000     -68.92340000
H      -42.94040000     -37.16620000     -71.07740000
