40
Properties=species:S:1:pos:R:3 #=T CELL(abcABC):=T 1.889726e+02=T 90.00000=T Traj:=T positionsangstrom=T Step:=T 0=T Bead:=T pbc="F F F"
C      -45.94760000     -36.30330000     -71.74200000
C      -46.86160000     -35.46080000     -71.10670000
C      -46.49770000     -34.85050000     -69.89990000
C      -45.16260000     -34.88850000     -69.42280000
C      -44.27050000     -35.78790000     -70.11230000
C      -44.63860000     -36.48650000     -71.23240000
H      -46.20450000     -36.76410000     -72.71340000
H      -47.27370000     -34.30310000     -69.34810000
H      -43.29610000     -36.00940000     -69.68250000
H      -43.96360000     -37.14860000     -71.78680000
C      -44.69070000     -34.09740000     -68.23290000
H      -43.73170000     -33.64670000     -68.49790000
H      -44.56990000     -34.65450000     -67.31010000
C      -48.28850000     -35.42490000     -71.58430000
H      -48.66250000     -36.40440000     -71.98530000
H      -48.98700000     -35.14370000     -70.72860000
S      -45.89250000     -32.68360000     -67.75610000
S      -48.40710000     -34.29560000     -73.03410000
C      -45.05620000     -31.11940000     -68.39850000
H      -45.48640000     -30.24520000     -67.94820000
H      -43.99930000     -31.11700000     -68.14820000
C      -48.17290000     -32.68660000     -72.14410000
H      -47.86090000     -33.00080000     -71.16150000
H      -49.12880000     -32.19510000     -72.15640000
C      -47.12390000     -31.75710000     -72.73940000
H      -47.53860000     -31.38250000     -73.62320000
H      -47.05310000     -30.85140000     -72.07040000
C      -45.12770000     -30.82850000     -69.92300000
H      -44.80350000     -29.81370000     -70.04430000
H      -46.09550000     -30.98480000     -70.37800000
C      -44.21500000     -31.63260000     -70.82500000
C      -42.87790000     -31.83250000     -70.51020000
C      -44.50470000     -32.15830000     -72.14690000
H      -42.33340000     -31.55870000     -69.61830000
C      -43.40100000     -32.72980000     -72.70340000
C      -45.69600000     -32.23450000     -72.97830000
C      -45.41190000     -32.85120000     -74.14440000
S      -41.97600000     -32.54780000     -71.76510000
S      -43.68380000     -33.23970000     -74.31580000
H      -46.12640000     -32.89100000     -75.01110000
