40
Properties=species:S:1:pos:R:3 #=T CELL(abcABC):=T 1.889726e+02=T 90.00000=T Traj:=T positionsangstrom=T Step:=T 0=T Bead:=T pbc="F F F"
C      -46.05390000     -36.33990000     -71.72210000
C      -46.95250000     -35.53490000     -70.98650000
C      -46.52850000     -34.83190000     -69.82960000
C      -45.20060000     -34.84690000     -69.46940000
C      -44.31740000     -35.65660000     -70.17800000
C      -44.79070000     -36.47970000     -71.20640000
H      -46.53220000     -36.89680000     -72.49430000
H      -47.26530000     -34.29330000     -69.23560000
H      -43.27330000     -35.63030000     -70.01570000
H      -44.11170000     -37.26400000     -71.54690000
C      -44.72330000     -34.13230000     -68.28210000
H      -43.71490000     -33.75080000     -68.38600000
H      -44.65340000     -34.88140000     -67.41360000
C      -48.35550000     -35.45050000     -71.58350000
H      -48.61770000     -36.39070000     -72.02530000
H      -49.13220000     -35.21640000     -70.90700000
S      -45.76640000     -32.80890000     -67.58300000
S      -48.19020000     -34.23680000     -73.05430000
C      -45.15270000     -31.22390000     -68.30880000
H      -45.77910000     -30.46040000     -67.84920000
H      -44.08380000     -31.00430000     -67.99330000
C      -48.01520000     -32.60740000     -72.11130000
H      -47.74170000     -32.83380000     -71.03360000
H      -48.92600000     -32.05130000     -71.99940000
C      -47.00880000     -31.58680000     -72.64520000
H      -47.36740000     -31.06080000     -73.60990000
H      -46.97700000     -30.70530000     -71.95360000
C      -45.26810000     -31.25320000     -69.81090000
H      -45.50880000     -30.18570000     -70.15070000
H      -46.26870000     -31.76880000     -70.09790000
C      -44.24120000     -31.74200000     -70.75580000
C      -42.92060000     -31.93810000     -70.43220000
C      -44.51590000     -32.11300000     -72.14650000
H      -42.38450000     -31.58730000     -69.57510000
C      -43.44270000     -32.58940000     -72.83920000
C      -45.66730000     -32.10390000     -73.02840000
C      -45.42920000     -32.62570000     -74.26600000
S      -41.97790000     -32.63890000     -71.83100000
S      -43.74170000     -33.08820000     -74.52030000
H      -46.17390000     -32.82590000     -75.10350000
