40
Properties=species:S:1:pos:R:3 #=T CELL(abcABC):=T 1.889726e+02=T 90.00000=T Traj:=T positionsangstrom=T Step:=T 0=T Bead:=T pbc="F F F"
C      -48.98750000     -30.82690000     -72.44720000
C      -47.65860000     -30.85180000     -72.20580000
C      -46.88170000     -31.78350000     -72.94530000
C      -47.40770000     -32.54570000     -73.99200000
C      -48.79230000     -32.48640000     -74.21500000
C      -49.57350000     -31.58180000     -73.42270000
H      -49.60230000     -30.09380000     -71.84620000
H      -45.79970000     -31.83360000     -72.88720000
H      -49.25490000     -33.08750000     -74.97250000
H      -50.66870000     -31.48470000     -73.60230000
C      -46.52440000     -33.39110000     -74.89910000
H      -45.48820000     -33.05800000     -74.95830000
H      -46.90270000     -33.43010000     -75.90540000
C      -47.15740000     -29.96190000     -71.10630000
H      -46.09230000     -29.69620000     -71.14150000
H      -47.67300000     -28.94960000     -71.16850000
S      -46.54530000     -35.20730000     -74.42970000
S      -47.42820000     -30.62960000     -69.43390000
C      -44.88690000     -35.43620000     -73.64120000
H      -44.87370000     -36.49850000     -73.33180000
H      -44.06820000     -35.25720000     -74.32550000
C      -45.71870000     -31.34840000     -69.04010000
H      -45.72240000     -31.29920000     -67.95120000
H      -45.00740000     -30.72410000     -69.54660000
C      -45.52390000     -32.72740000     -69.62950000
H      -46.36320000     -33.30110000     -69.33990000
H      -45.51070000     -32.66550000     -70.68810000
C      -44.77370000     -34.56800000     -72.34900000
H      -45.75550000     -34.60970000     -71.73180000
H      -44.73190000     -33.50980000     -72.70850000
C      -43.68960000     -34.98760000     -71.46270000
C      -42.62720000     -35.78660000     -71.82510000
C      -43.56520000     -34.43510000     -70.10700000
H      -42.67210000     -36.41900000     -72.73120000
C      -42.41470000     -34.95610000     -69.50000000
C      -44.20610000     -33.43070000     -69.28840000
C      -43.57150000     -33.36240000     -68.02950000
S      -41.53200000     -36.09370000     -70.46820000
S      -42.11230000     -34.38170000     -67.94710000
H      -43.74270000     -32.62240000     -67.21460000
