40
Properties=species:S:1:pos:R:3 #=T CELL(abcABC):=T 1.889726e+02=T 90.00000=T Traj:=T positionsangstrom=T Step:=T 0=T Bead:=T pbc="F F F"
C      -45.27170000     -30.97640000     -74.85220000
C      -45.23180000     -32.32150000     -74.55810000
C      -46.20700000     -32.79440000     -73.59340000
C      -47.23620000     -31.95390000     -73.09950000
C      -47.23200000     -30.56710000     -73.47890000
C      -46.24230000     -30.09760000     -74.37310000
H      -44.58690000     -30.69590000     -75.64550000
H      -46.17480000     -33.85570000     -73.21840000
H      -48.00210000     -29.95130000     -73.08070000
H      -46.32030000     -29.01150000     -74.63290000
C      -48.32460000     -32.47400000     -72.19890000
H      -48.39260000     -33.56140000     -72.24050000
H      -49.22360000     -32.07560000     -72.73510000
C      -44.27160000     -33.24240000     -75.19330000
H      -44.70600000     -34.24190000     -75.45890000
H      -43.88130000     -32.74250000     -76.15240000
S      -48.24170000     -31.71830000     -70.45000000
S      -42.73080000     -33.55420000     -74.35500000
C      -46.58720000     -31.02080000     -70.29860000
H      -46.34200000     -30.28940000     -71.04020000
H      -46.56060000     -30.35670000     -69.45260000
C      -43.15770000     -34.61870000     -72.82660000
H      -42.60960000     -35.52130000     -73.00850000
H      -44.23700000     -34.88960000     -72.83220000
C      -42.83010000     -33.87930000     -71.52710000
H      -41.82140000     -33.63610000     -71.43520000
H      -43.26480000     -32.94740000     -71.54700000
C      -45.48330000     -32.09340000     -70.41990000
H      -44.48810000     -31.72550000     -70.30360000
H      -45.44950000     -32.44470000     -71.48050000
C      -45.55980000     -33.27470000     -69.47600000
C      -46.50000000     -33.38810000     -68.52890000
C      -44.60790000     -34.38180000     -69.54540000
H      -47.28560000     -32.62350000     -68.14830000
C      -44.86400000     -35.30950000     -68.53590000
C      -43.48580000     -34.77230000     -70.42050000
C      -42.99090000     -36.00070000     -70.08120000
S      -46.28890000     -34.89060000     -67.59190000
S      -43.75790000     -36.67880000     -68.57740000
H      -42.22570000     -36.62860000     -70.56690000
