40
Properties=species:S:1:pos:R:3 #=T CELL(abcABC):=T 1.889726e+02=T 90.00000=T Traj:=T positionsangstrom=T Step:=T 0=T Bead:=T pbc="F F F"
C      -44.93200000     -30.59170000     -74.71160000
C      -45.09630000     -32.01070000     -74.46230000
C      -46.24170000     -32.38750000     -73.68630000
C      -47.14380000     -31.51290000     -73.12030000
C      -46.93980000     -30.12880000     -73.38300000
C      -45.87060000     -29.71080000     -74.17470000
H      -44.23680000     -30.14210000     -75.37290000
H      -46.41560000     -33.46380000     -73.52300000
H      -47.60590000     -29.33790000     -73.04700000
H      -45.85320000     -28.62240000     -74.28930000
C      -48.26340000     -31.92920000     -72.21470000
H      -48.42580000     -33.03230000     -72.15830000
H      -49.24690000     -31.56990000     -72.67230000
C      -44.28170000     -33.01350000     -75.24580000
H      -44.86410000     -33.93080000     -75.46300000
H      -43.87770000     -32.68790000     -76.23320000
S      -48.15720000     -31.25200000     -70.48380000
S      -42.75220000     -33.52300000     -74.32890000
C      -46.37410000     -31.11910000     -70.03300000
H      -46.08800000     -30.28820000     -70.63980000
H      -46.44730000     -30.89200000     -68.95480000
C      -43.50490000     -34.55380000     -72.94770000
H      -43.26760000     -35.62800000     -73.17710000
H      -44.59570000     -34.40800000     -73.04150000
C      -42.93560000     -34.22820000     -71.54110000
H      -41.83530000     -34.32250000     -71.59760000
H      -43.18200000     -33.19970000     -71.47250000
C      -45.51660000     -32.32650000     -70.38600000
H      -44.47380000     -32.02440000     -70.26690000
H      -45.64110000     -32.49930000     -71.40350000
C      -45.69320000     -33.57080000     -69.52430000
C      -46.71190000     -33.87740000     -68.62910000
C      -44.73860000     -34.69110000     -69.58710000
H      -47.59890000     -33.32940000     -68.44460000
C      -45.00770000     -35.70140000     -68.62290000
C      -43.54290000     -35.02710000     -70.39340000
C      -42.94860000     -36.22120000     -69.98960000
S      -46.50240000     -35.36840000     -67.67980000
S      -43.72890000     -36.94540000     -68.63550000
H      -42.11050000     -36.69390000     -70.55320000
