40
Properties=species:S:1:pos:R:3 #=T CELL(abcABC):=T 1.889726e+02=T 90.00000=T Traj:=T positionsangstrom=T Step:=T 0=T Bead:=T pbc="F F F"
C      -45.61560000     -35.80240000     -72.05950000
C      -46.69950000     -35.21440000     -71.42370000
C      -46.59540000     -34.96270000     -70.08740000
C      -45.36350000     -35.12040000     -69.40140000
C      -44.28130000     -35.69060000     -70.08230000
C      -44.41750000     -36.18510000     -71.39620000
H      -45.80560000     -35.93650000     -73.05390000
H      -47.48460000     -34.51710000     -69.55480000
H      -43.31030000     -35.66650000     -69.60580000
H      -43.72030000     -36.87100000     -71.81290000
C      -45.17280000     -34.68970000     -67.93560000
H      -44.06900000     -34.64700000     -67.87490000
H      -45.43480000     -35.46320000     -67.25260000
C      -48.07970000     -35.05830000     -72.04250000
H      -48.32370000     -36.02310000     -72.57800000
H      -48.84140000     -34.86820000     -71.21410000
S      -45.85340000     -33.09500000     -67.40190000
S      -48.10870000     -33.56380000     -73.16310000
C      -44.74900000     -31.82320000     -68.15030000
H      -44.72780000     -30.82670000     -67.62680000
H      -43.76040000     -32.13180000     -68.03960000
C      -47.84440000     -32.17540000     -71.90460000
H      -47.35370000     -32.67260000     -71.06890000
H      -48.86290000     -31.90710000     -71.51610000
C      -46.99090000     -31.06100000     -72.48560000
H      -47.34290000     -30.57400000     -73.45040000
H      -46.90180000     -30.13890000     -71.81880000
C      -45.07510000     -31.49850000     -69.57000000
H      -44.85640000     -30.40460000     -69.75520000
H      -46.11620000     -31.62430000     -69.75660000
C      -44.23850000     -32.16620000     -70.67060000
C      -43.09390000     -32.85890000     -70.38380000
C      -44.51730000     -32.11420000     -72.11300000
H      -42.72440000     -33.18190000     -69.43720000
C      -43.52620000     -32.73850000     -72.84410000
C      -45.64140000     -31.65310000     -72.89170000
C      -45.41220000     -31.79450000     -74.24210000
S      -42.28340000     -33.47760000     -71.83390000
S      -43.99960000     -32.80570000     -74.58390000
H      -45.90740000     -31.31560000     -75.17240000
