40
Properties=species:S:1:pos:R:3 #=T CELL(abcABC):=T 1.889726e+02=T 90.00000=T Traj:=T positionsangstrom=T Step:=T 0=T Bead:=T pbc="F F F"
C      -46.84820000     -35.76260000     -72.11170000
C      -47.81590000     -35.06150000     -71.45580000
C      -47.56220000     -34.71130000     -70.10110000
C      -46.51080000     -35.19780000     -69.36400000
C      -45.59880000     -36.02470000     -70.02110000
C      -45.78020000     -36.32350000     -71.37440000
H      -47.05270000     -36.09110000     -73.11260000
H      -48.25600000     -34.03270000     -69.62420000
H      -44.71270000     -36.41650000     -69.58510000
H      -45.02180000     -36.93220000     -71.88790000
C      -46.47420000     -35.01570000     -67.90340000
H      -45.82460000     -35.80410000     -67.47400000
H      -47.46020000     -35.11680000     -67.40160000
C      -48.86640000     -34.31150000     -72.15220000
H      -49.49500000     -34.94210000     -72.75340000
H      -49.55020000     -33.87710000     -71.46290000
S      -45.96450000     -33.34690000     -67.31510000
S      -48.29070000     -32.89590000     -73.20190000
C      -44.42710000     -32.84570000     -68.25270000
H      -43.86180000     -32.13030000     -67.58700000
H      -43.65350000     -33.60920000     -68.41940000
C      -47.40400000     -31.96830000     -71.83300000
H      -46.96440000     -32.77550000     -71.25730000
H      -48.06450000     -31.36230000     -71.11180000
C      -46.28500000     -31.03090000     -72.45610000
H      -46.81950000     -30.38480000     -73.22250000
H      -45.90560000     -30.26870000     -71.81610000
C      -44.67180000     -32.02430000     -69.55700000
H      -44.60240000     -30.98910000     -69.38840000
H      -45.72700000     -32.14230000     -69.89910000
C      -43.68930000     -32.40180000     -70.65340000
C      -42.45640000     -32.93470000     -70.36580000
C      -43.89950000     -32.24620000     -72.11360000
H      -42.05380000     -33.04080000     -69.38400000
C      -42.78070000     -32.75330000     -72.84790000
C      -45.02090000     -31.76770000     -72.97530000
C      -44.59850000     -31.92960000     -74.31470000
S      -41.55510000     -33.45560000     -71.82160000
S      -43.02200000     -32.51570000     -74.57980000
H      -45.24140000     -31.70770000     -75.23900000
