40
Properties=species:S:1:pos:R:3 #=T CELL(abcABC):=T 1.889726e+02=T 90.00000=T Traj:=T positionsangstrom=T Step:=T 0=T Bead:=T pbc="F F F"
C      -45.93890000     -35.63210000     -72.15740000
C      -47.15480000     -35.28330000     -71.50680000
C      -47.11610000     -35.02740000     -70.14670000
C      -45.90850000     -35.16900000     -69.41480000
C      -44.75900000     -35.55410000     -70.09530000
C      -44.76950000     -35.83130000     -71.45280000
H      -46.06710000     -35.93270000     -73.20130000
H      -48.00860000     -34.69370000     -69.57890000
H      -43.84910000     -35.74570000     -69.46090000
H      -43.80510000     -36.16240000     -71.94650000
C      -45.87510000     -34.96620000     -67.87630000
H      -44.90190000     -35.45570000     -67.51150000
H      -46.64390000     -35.39370000     -67.24490000
C      -48.49620000     -34.93040000     -72.31810000
H      -48.71450000     -35.73230000     -73.02540000
H      -49.39390000     -34.97470000     -71.70530000
S      -46.00950000     -33.19390000     -67.43690000
S      -48.30430000     -33.29130000     -73.20100000
C      -44.54200000     -32.47290000     -68.20740000
H      -44.05990000     -31.77430000     -67.51660000
H      -43.78390000     -33.25700000     -68.39440000
C      -47.65280000     -32.18180000     -71.81420000
H      -47.17220000     -32.79880000     -71.06730000
H      -48.56300000     -31.62800000     -71.43260000
C      -46.65760000     -31.12330000     -72.25640000
H      -47.02460000     -30.36240000     -72.95560000
H      -46.43160000     -30.61710000     -71.41180000
C      -44.70700000     -31.61870000     -69.51130000
H      -44.60780000     -30.49970000     -69.28130000
H      -45.71770000     -31.70750000     -69.63540000
C      -43.90940000     -32.12020000     -70.64810000
C      -42.63400000     -32.56180000     -70.35790000
C      -44.32210000     -32.21530000     -72.02630000
H      -42.02510000     -32.38430000     -69.48000000
C      -43.18010000     -32.76370000     -72.76160000
C      -45.39530000     -31.75360000     -72.85710000
C      -45.24730000     -32.11860000     -74.18910000
S      -41.84890000     -33.21030000     -71.85490000
S      -43.69060000     -32.91220000     -74.54680000
H      -45.89700000     -31.74730000     -74.96820000
