40
Properties=species:S:1:pos:R:3 #=T CELL(abcABC):=T 1.889726e+02=T 90.00000=T Traj:=T positionsangstrom=T Step:=T 0=T Bead:=T pbc="F F F"
C      -49.35860000     -33.08280000     -72.20700000
C      -48.33620000     -32.10740000     -72.33150000
C      -47.29850000     -32.25590000     -73.23590000
C      -47.29020000     -33.44460000     -74.04260000
C      -48.20440000     -34.48780000     -73.77420000
C      -49.24420000     -34.29820000     -72.91680000
H      -50.25340000     -32.73310000     -71.62070000
H      -46.69910000     -31.36740000     -73.43870000
H      -48.16810000     -35.38060000     -74.40520000
H      -49.94810000     -35.11130000     -72.78850000
C      -46.36280000     -33.59810000     -75.16330000
H      -45.78810000     -32.64960000     -75.28210000
H      -46.83270000     -33.78060000     -76.13600000
C      -48.42410000     -30.81440000     -71.56880000
H      -47.77510000     -29.97560000     -72.00160000
H      -49.50910000     -30.53970000     -71.38970000
S      -45.08810000     -34.82600000     -74.93870000
S      -47.95180000     -30.91410000     -69.76560000
C      -44.26570000     -34.22880000     -73.33200000
H      -43.16550000     -34.22210000     -73.39190000
H      -44.56040000     -33.18150000     -73.07480000
C      -46.08880000     -30.87220000     -69.68560000
H      -45.88190000     -30.86670000     -68.70310000
H      -45.75990000     -29.97810000     -70.13790000
C      -45.54800000     -32.22890000     -70.31110000
H      -46.35950000     -33.00160000     -70.15830000
H      -45.53500000     -32.06040000     -71.39560000
C      -44.74470000     -35.08820000     -72.08020000
H      -44.76770000     -36.06630000     -72.45180000
H      -45.74420000     -34.85580000     -71.83070000
C      -43.67940000     -34.98280000     -70.98530000
C      -42.76200000     -35.96480000     -70.72210000
C      -43.62290000     -33.93330000     -70.01040000
H      -42.82910000     -36.97080000     -71.21880000
C      -42.52640000     -34.13360000     -69.14440000
C      -44.30160000     -32.65830000     -69.65850000
C      -43.57710000     -31.87220000     -68.83100000
S      -41.68420000     -35.65780000     -69.39550000
S      -42.15520000     -32.66120000     -68.15930000
H      -43.88210000     -30.93570000     -68.50880000
