40
Properties=species:S:1:pos:R:3 #=T CELL(abcABC):=T 1.889726e+02=T 90.00000=T Traj:=T positionsangstrom=T Step:=T 0=T Bead:=T pbc="F F F"
C      -49.20980000     -33.25770000     -71.42100000
C      -48.45350000     -32.30180000     -72.17900000
C      -47.62940000     -32.77160000     -73.18260000
C      -47.63810000     -34.05600000     -73.67940000
C      -48.51400000     -34.93400000     -73.04730000
C      -49.29480000     -34.53970000     -71.94430000
H      -49.94110000     -32.90600000     -70.69410000
H      -47.17710000     -31.90940000     -73.75790000
H      -48.39270000     -35.89000000     -73.47120000
H      -49.81880000     -35.23280000     -71.35830000
C      -46.84920000     -34.33750000     -74.96080000
H      -46.31110000     -33.45180000     -75.25780000
H      -47.59920000     -34.52290000     -75.73660000
C      -48.37810000     -30.85470000     -71.73680000
H      -47.72130000     -30.16510000     -72.35120000
H      -49.39730000     -30.48380000     -71.70330000
S      -45.61260000     -35.66980000     -74.68330000
S      -47.99100000     -30.76490000     -69.93770000
C      -44.32150000     -34.87980000     -73.65150000
H      -43.33340000     -35.42300000     -73.76140000
H      -44.17060000     -33.84690000     -73.95130000
C      -46.20140000     -30.96250000     -69.85090000
H      -45.86830000     -30.67180000     -68.78680000
H      -45.78630000     -30.22340000     -70.53200000
C      -45.72240000     -32.34020000     -70.18380000
H      -46.36920000     -33.09500000     -69.68100000
H      -45.77510000     -32.51890000     -71.24310000
C      -44.60370000     -34.89640000     -72.07460000
H      -44.98850000     -35.83990000     -71.72370000
H      -45.30360000     -34.18850000     -71.88200000
C      -43.38610000     -34.51050000     -71.25910000
C      -42.29280000     -35.35220000     -71.17210000
C      -43.31420000     -33.46470000     -70.25960000
H      -42.20440000     -36.24740000     -71.77440000
C      -42.09660000     -33.42660000     -69.57430000
C      -44.26800000     -32.56570000     -69.66820000
C      -43.76140000     -31.95960000     -68.57830000
S      -41.05470000     -34.67880000     -70.07870000
S      -42.07570000     -32.30310000     -68.22450000
H      -44.35890000     -31.30350000     -67.90330000
