40
Properties=species:S:1:pos:R:3 #=T CELL(abcABC):=T 1.889726e+02=T 90.00000=T Traj:=T positionsangstrom=T Step:=T 0=T Bead:=T pbc="F F F"
C      -49.39710000     -33.27100000     -71.53220000
C      -48.38010000     -32.40160000     -72.07740000
C      -47.60490000     -32.87080000     -73.15650000
C      -47.83410000     -34.16660000     -73.73220000
C      -48.73570000     -35.00210000     -73.04290000
C      -49.57470000     -34.60080000     -71.97000000
H      -49.98580000     -32.94420000     -70.66400000
H      -46.89940000     -32.17830000     -73.59920000
H      -48.86090000     -36.06370000     -73.47750000
H      -50.21180000     -35.33660000     -71.43060000
C      -47.01140000     -34.58230000     -74.95840000
H      -46.78610000     -33.70440000     -75.56000000
H      -47.56950000     -35.11490000     -75.71980000
C      -48.26780000     -30.96870000     -71.66620000
H      -47.44940000     -30.48290000     -72.26540000
H      -49.22230000     -30.42850000     -71.94860000
S      -45.50420000     -35.59600000     -74.63120000
S      -47.98480000     -30.81260000     -69.87150000
C      -44.48960000     -34.36090000     -73.54980000
H      -43.49630000     -34.53690000     -73.89120000
H      -44.82680000     -33.26320000     -73.69910000
C      -46.17030000     -30.92000000     -69.68660000
H      -46.02820000     -30.70250000     -68.66290000
H      -45.66930000     -30.06700000     -70.20350000
C      -45.60820000     -32.27800000     -70.07600000
H      -46.23840000     -33.15040000     -69.88880000
H      -45.51720000     -32.32940000     -71.20150000
C      -44.63220000     -34.81710000     -72.06580000
H      -44.83290000     -35.85560000     -71.92910000
H      -45.55770000     -34.38110000     -71.63150000
C      -43.45020000     -34.52320000     -71.23130000
C      -42.22260000     -35.01110000     -71.58690000
C      -43.32980000     -33.66570000     -70.06200000
H      -42.10680000     -35.82930000     -72.29780000
C      -42.04830000     -33.51470000     -69.56740000
C      -44.23140000     -32.66270000     -69.52310000
C      -43.68780000     -31.88760000     -68.54370000
S      -40.99380000     -34.60350000     -70.38680000
S      -41.94640000     -32.38230000     -68.16900000
H      -44.12110000     -31.14390000     -67.94120000
