40
Properties=species:S:1:pos:R:3 #=T CELL(abcABC):=T 1.889726e+02=T 90.00000=T Traj:=T positionsangstrom=T Step:=T 0=T Bead:=T pbc="F F F"
C      -49.03590000     -33.39730000     -71.57960000
C      -48.28740000     -32.31230000     -72.07020000
C      -47.48910000     -32.49250000     -73.21530000
C      -47.39390000     -33.73740000     -73.86490000
C      -48.26500000     -34.79050000     -73.45690000
C      -49.06640000     -34.59330000     -72.32390000
H      -49.49670000     -33.39560000     -70.61360000
H      -47.02120000     -31.56220000     -73.58660000
H      -48.16920000     -35.78310000     -73.89340000
H      -49.75730000     -35.34230000     -71.97650000
C      -46.48840000     -33.86350000     -75.05790000
H      -46.13530000     -32.92720000     -75.28530000
H      -47.02000000     -34.23450000     -75.94500000
C      -48.47790000     -30.92080000     -71.57310000
H      -47.68580000     -30.26230000     -71.96730000
H      -49.46620000     -30.54210000     -71.87710000
S      -45.14020000     -35.07010000     -74.96550000
S      -48.23820000     -30.97540000     -69.70020000
C      -44.19520000     -34.46480000     -73.50140000
H      -43.25380000     -34.93420000     -73.67900000
H      -44.13980000     -33.37520000     -73.61940000
C      -46.44840000     -31.01470000     -69.37460000
H      -46.28130000     -31.27750000     -68.34000000
H      -45.82210000     -30.05530000     -69.61590000
C      -45.74190000     -32.27790000     -70.07220000
H      -46.27960000     -33.21400000     -69.80240000
H      -45.90650000     -32.02230000     -71.15870000
C      -44.80780000     -34.93340000     -72.12480000
H      -45.08250000     -35.98350000     -72.16020000
H      -45.71230000     -34.42260000     -71.76310000
C      -43.68270000     -34.78240000     -71.05110000
C      -42.65610000     -35.68820000     -71.06000000
C      -43.65150000     -33.74270000     -69.98630000
H      -42.48050000     -36.60110000     -71.55700000
C      -42.35810000     -33.79440000     -69.37850000
C      -44.28460000     -32.46600000     -69.72650000
C      -43.44850000     -31.56650000     -69.10060000
S      -41.49070000     -35.24950000     -69.75270000
S      -41.95690000     -32.38210000     -68.46850000
H      -43.74500000     -30.52420000     -68.79370000
