40
Properties=species:S:1:pos:R:3 #=T CELL(abcABC):=T 1.889726e+02=T 90.00000=T Traj:=T positionsangstrom=T Step:=T 0=T Bead:=T pbc="F F F"
C      -49.20170000     -33.36060000     -71.42360000
C      -48.36940000     -32.48870000     -72.06820000
C      -47.73460000     -32.88410000     -73.25020000
C      -47.93960000     -34.15660000     -73.79690000
C      -48.77690000     -35.00130000     -73.16970000
C      -49.42080000     -34.58280000     -72.01010000
H      -49.80730000     -32.92960000     -70.68880000
H      -47.14780000     -32.20200000     -73.91610000
H      -49.00460000     -36.05740000     -73.55120000
H      -50.04800000     -35.35510000     -71.59320000
C      -47.16930000     -34.44890000     -75.01940000
H      -46.83170000     -33.46730000     -75.48280000
H      -47.78620000     -35.09390000     -75.67720000
C      -48.17950000     -31.05510000     -71.62190000
H      -47.49790000     -30.50380000     -72.26330000
H      -49.08260000     -30.55870000     -71.82940000
S      -45.65890000     -35.52610000     -74.61730000
S      -48.01140000     -30.73770000     -69.83690000
C      -44.62660000     -34.52080000     -73.48160000
H      -43.62210000     -34.42760000     -73.89840000
H      -44.88710000     -33.47290000     -73.39080000
C      -46.16890000     -30.91380000     -69.57070000
H      -46.11900000     -30.79800000     -68.43260000
H      -45.55450000     -30.19880000     -70.06900000
C      -45.65660000     -32.30710000     -69.93300000
H      -46.26220000     -32.94390000     -69.31410000
H      -45.90760000     -32.57080000     -70.98560000
C      -44.56550000     -35.00940000     -72.01250000
H      -44.59320000     -36.09700000     -71.97430000
H      -45.49950000     -34.52940000     -71.60670000
C      -43.40240000     -34.54790000     -71.23770000
C      -42.13290000     -35.15210000     -71.42940000
C      -43.29970000     -33.45760000     -70.25840000
H      -41.98550000     -36.10970000     -71.85800000
C      -41.98920000     -33.31780000     -69.76130000
C      -44.17330000     -32.57090000     -69.58560000
C      -43.61200000     -32.09530000     -68.41080000
S      -40.91210000     -34.47950000     -70.47070000
S      -41.93600000     -32.47490000     -68.18570000
H      -43.97750000     -31.44090000     -67.66150000
