40
Properties=species:S:1:pos:R:3 #=T CELL(abcABC):=T 1.889726e+02=T 90.00000=T Traj:=T positionsangstrom=T Step:=T 0=T Bead:=T pbc="F F F"
C      -48.99810000     -33.21560000     -71.08670000
C      -48.30500000     -32.26820000     -71.86210000
C      -47.59060000     -32.70970000     -73.01400000
C      -47.94870000     -33.95850000     -73.58210000
C      -48.76510000     -34.80130000     -72.83810000
C      -49.31210000     -34.40500000     -71.60730000
H      -49.53250000     -32.85120000     -70.15940000
H      -46.88850000     -31.92980000     -73.36450000
H      -49.12110000     -35.70440000     -73.34810000
H      -49.79460000     -35.00760000     -70.89930000
C      -47.38620000     -34.41680000     -74.92590000
H      -46.92210000     -33.58710000     -75.50330000
H      -48.10970000     -35.00500000     -75.50870000
C      -48.05970000     -30.86000000     -71.34900000
H      -47.33030000     -30.31620000     -71.87320000
H      -49.00490000     -30.29960000     -71.57900000
S      -46.00520000     -35.67280000     -74.61610000
S      -47.90470000     -30.82070000     -69.43520000
C      -44.71170000     -34.74670000     -73.62320000
H      -43.77470000     -35.17070000     -73.96850000
H      -44.66990000     -33.72250000     -73.94760000
C      -46.04020000     -30.99400000     -69.24130000
H      -45.85790000     -30.84540000     -68.14210000
H      -45.62030000     -30.25800000     -69.91990000
C      -45.65940000     -32.39390000     -69.63860000
H      -46.21380000     -33.12690000     -69.09730000
H      -45.86100000     -32.57430000     -70.73530000
C      -44.81530000     -34.89850000     -72.12010000
H      -45.23530000     -35.85340000     -71.92540000
H      -45.60550000     -34.17570000     -71.83100000
C      -43.56840000     -34.64530000     -71.36600000
C      -42.41980000     -35.36620000     -71.58770000
C      -43.36930000     -33.63690000     -70.27110000
H      -42.17310000     -35.99930000     -72.48270000
C      -42.00990000     -33.56990000     -69.94080000
C      -44.13760000     -32.63320000     -69.52730000
C      -43.31710000     -31.82420000     -68.79010000
S      -41.01440000     -34.73310000     -70.75890000
S      -41.60350000     -32.23280000     -68.97770000
H      -43.65020000     -30.93450000     -68.26210000
