40
Properties=species:S:1:pos:R:3 #=T CELL(abcABC):=T 1.889726e+02=T 90.00000=T Traj:=T positionsangstrom=T Step:=T 0=T Bead:=T pbc="F F F"
C      -48.04220000     -31.96460000     -72.75460000
C      -47.43120000     -31.15090000     -71.74030000
C      -46.26060000     -30.44520000     -71.95940000
C      -45.64140000     -30.50560000     -73.26540000
C      -46.35800000     -31.20230000     -74.29740000
C      -47.52650000     -31.93760000     -74.03740000
H      -48.94410000     -32.57160000     -72.38100000
H      -45.73890000     -29.84350000     -71.18480000
H      -45.87180000     -31.24960000     -75.21730000
H      -48.01800000     -32.51160000     -74.87080000
C      -44.29650000     -29.84720000     -73.52290000
H      -44.53780000     -28.82870000     -73.52510000
H      -43.98300000     -29.97030000     -74.53330000
C      -48.12510000     -31.07520000     -70.45590000
H      -47.49370000     -30.73530000     -69.69110000
H      -49.01520000     -30.41550000     -70.54730000
S      -42.92000000     -30.33370000     -72.37230000
S      -48.79530000     -32.68950000     -69.80970000
C      -42.94740000     -32.16860000     -72.41070000
H      -43.15570000     -32.43700000     -73.41170000
H      -41.90460000     -32.52210000     -72.23100000
C      -47.57480000     -34.01290000     -70.29310000
H      -47.26030000     -34.06100000     -71.29830000
H      -48.07510000     -34.90930000     -70.06470000
C      -46.41100000     -33.81590000     -69.29660000
H      -45.90670000     -32.87530000     -69.44840000
H      -46.79630000     -33.75260000     -68.24720000
C      -44.01560000     -32.79290000     -71.50370000
H      -45.03860000     -32.48090000     -71.73130000
H      -43.87060000     -32.46660000     -70.48980000
C      -43.88520000     -34.30630000     -71.52790000
C      -43.04620000     -34.97870000     -72.34530000
C      -44.50020000     -35.17340000     -70.50040000
H      -42.21640000     -34.56030000     -72.91010000
C      -43.94130000     -36.43870000     -70.45740000
C      -45.35750000     -34.91160000     -69.33980000
C      -45.48450000     -36.13520000     -68.56970000
S      -42.82800000     -36.70370000     -71.84900000
S      -44.42830000     -37.37320000     -69.13770000
H      -46.15050000     -36.40830000     -67.74450000
