40
Properties=species:S:1:pos:R:3 #=T CELL(abcABC):=T 1.889726e+02=T 90.00000=T Traj:=T positionsangstrom=T Step:=T 0=T Bead:=T pbc="F F F"
C      -49.21950000     -33.11250000     -71.07660000
C      -48.47110000     -32.21270000     -71.83180000
C      -47.96970000     -32.63630000     -73.08310000
C      -48.06820000     -33.99870000     -73.55170000
C      -48.75400000     -34.86060000     -72.69450000
C      -49.44910000     -34.44370000     -71.56920000
H      -49.54490000     -32.85140000     -70.06620000
H      -47.33640000     -31.93150000     -73.63510000
H      -48.82130000     -35.93510000     -72.98300000
H      -50.13580000     -35.02270000     -70.96780000
C      -47.37190000     -34.39740000     -74.86120000
H      -47.00790000     -33.50370000     -75.41870000
H      -47.93370000     -34.82250000     -75.68210000
C      -47.99720000     -30.90340000     -71.33740000
H      -46.97710000     -30.76110000     -71.64620000
H      -48.63190000     -30.07000000     -71.71060000
S      -46.06970000     -35.65180000     -74.56670000
S      -47.86620000     -30.81850000     -69.50080000
C      -44.73100000     -34.84260000     -73.57320000
H      -43.80420000     -35.31340000     -73.96930000
H      -44.59210000     -33.81370000     -73.90670000
C      -46.04910000     -31.10850000     -69.22870000
H      -45.98220000     -31.15870000     -68.15640000
H      -45.37460000     -30.22910000     -69.45150000
C      -45.43560000     -32.28870000     -69.94970000
H      -45.84050000     -33.20100000     -69.52140000
H      -45.77120000     -32.25450000     -70.97380000
C      -44.84060000     -34.88630000     -72.01920000
H      -45.01260000     -35.85360000     -71.55910000
H      -45.56790000     -34.11070000     -71.66560000
C      -43.50700000     -34.48960000     -71.43570000
C      -42.47830000     -35.39310000     -71.52480000
C      -43.21100000     -33.43680000     -70.52140000
H      -42.58310000     -36.34610000     -72.04230000
C      -41.90580000     -33.52890000     -70.01280000
C      -43.93480000     -32.39440000     -69.85550000
C      -43.14290000     -31.62290000     -68.99830000
S      -41.06090000     -34.95250000     -70.62120000
S      -41.51370000     -32.30630000     -68.84700000
H      -43.53620000     -30.98240000     -68.23480000
