40
Properties=species:S:1:pos:R:3 #=T CELL(abcABC):=T 1.889726e+02=T 90.00000=T Traj:=T positionsangstrom=T Step:=T 0=T Bead:=T pbc="F F F"
C      -49.46610000     -33.18010000     -71.18440000
C      -48.65510000     -32.19110000     -71.75180000
C      -47.85940000     -32.56400000     -72.89750000
C      -47.96500000     -33.83370000     -73.41980000
C      -48.76800000     -34.82160000     -72.79780000
C      -49.55360000     -34.45500000     -71.68030000
H      -50.17580000     -32.86490000     -70.35790000
H      -47.12840000     -31.85360000     -73.17600000
H      -48.73750000     -35.87720000     -73.16530000
H      -50.10790000     -35.20150000     -71.12610000
C      -47.26500000     -34.31970000     -74.70190000
H      -46.79180000     -33.56010000     -75.23710000
H      -48.04210000     -34.63200000     -75.40240000
C      -48.58170000     -30.82820000     -71.13340000
H      -48.07170000     -30.26980000     -71.87400000
H      -49.60710000     -30.34440000     -70.98340000
S      -45.91260000     -35.62760000     -74.57570000
S      -47.70900000     -30.70920000     -69.48940000
C      -44.56290000     -35.06100000     -73.61350000
H      -43.75160000     -35.80510000     -73.79280000
H      -44.09780000     -34.12140000     -74.02620000
C      -45.91460000     -30.72500000     -69.91530000
H      -45.33050000     -30.33170000     -69.10680000
H      -45.73830000     -30.01840000     -70.67200000
C      -45.41490000     -32.17090000     -70.28140000
H      -46.21510000     -32.87380000     -69.97010000
H      -45.36860000     -32.25450000     -71.40470000
C      -44.83330000     -34.98100000     -72.08660000
H      -45.30260000     -35.94620000     -71.89730000
H      -45.48450000     -34.07710000     -71.91930000
C      -43.52420000     -34.74570000     -71.27870000
C      -42.45170000     -35.54820000     -71.41550000
C      -43.28120000     -33.68320000     -70.31110000
H      -42.32310000     -36.35200000     -72.09570000
C      -41.95530000     -33.64980000     -69.87040000
C      -43.99500000     -32.49700000     -69.79480000
C      -43.17350000     -31.68180000     -69.06780000
S      -41.06630000     -34.96920000     -70.49480000
S      -41.52290000     -32.30880000     -68.85110000
H      -43.56920000     -30.88690000     -68.43270000
