40
Properties=species:S:1:pos:R:3 #=T CELL(abcABC):=T 1.889726e+02=T 90.00000=T Traj:=T positionsangstrom=T Step:=T 0=T Bead:=T pbc="F F F"
C      -48.13560000     -30.71690000     -71.98140000
C      -47.10040000     -30.71050000     -71.06100000
C      -45.84170000     -30.37600000     -71.48070000
C      -45.54970000     -30.06910000     -72.84410000
C      -46.57910000     -30.14480000     -73.75260000
C      -47.86450000     -30.37170000     -73.31280000
H      -49.20210000     -30.89890000     -71.72420000
H      -45.02430000     -30.35800000     -70.75500000
H      -46.52100000     -30.17430000     -74.83610000
H      -48.84280000     -30.42380000     -73.96590000
C      -44.11130000     -29.74120000     -73.21320000
H      -43.99350000     -28.60200000     -73.04770000
H      -43.79140000     -29.89210000     -74.26780000
C      -47.23130000     -31.05000000     -69.61300000
H      -46.24090000     -31.32160000     -69.14770000
H      -47.64930000     -30.16890000     -69.07290000
S      -42.87420000     -30.65180000     -72.12890000
S      -48.43170000     -32.43550000     -69.23380000
C      -42.94520000     -32.40700000     -72.71400000
H      -42.84250000     -32.46850000     -73.85920000
H      -42.02920000     -32.93950000     -72.28230000
C      -47.51600000     -33.76350000     -70.10980000
H      -47.58150000     -33.67120000     -71.19500000
H      -48.01680000     -34.74850000     -69.87890000
C      -46.10790000     -33.90440000     -69.50600000
H      -45.39780000     -33.12470000     -69.80710000
H      -46.19800000     -33.83590000     -68.42970000
C      -44.26930000     -33.22810000     -72.32200000
H      -45.02000000     -33.04290000     -73.09030000
H      -44.61040000     -32.72920000     -71.40660000
C      -43.99330000     -34.70760000     -72.03940000
C      -43.22850000     -35.46090000     -72.86710000
C      -44.56550000     -35.50110000     -70.97670000
H      -42.78030000     -35.11330000     -73.75890000
C      -44.11260000     -36.81480000     -71.00350000
C      -45.42400000     -35.20450000     -69.84270000
C      -45.51310000     -36.33020000     -69.03540000
S      -43.24100000     -37.20480000     -72.43680000
S      -44.77750000     -37.77530000     -69.62190000
H      -46.02330000     -36.44330000     -68.14000000
