40
Properties=species:S:1:pos:R:3 #=T CELL(abcABC):=T 1.889726e+02=T 90.00000=T Traj:=T positionsangstrom=T Step:=T 0=T Bead:=T pbc="F F F"
C      -43.83260000     -35.53940000     -73.80370000
C      -45.22750000     -35.62640000     -74.04520000
C      -46.07940000     -35.80210000     -72.98200000
C      -45.51030000     -36.16220000     -71.70300000
C      -44.13950000     -36.28730000     -71.50640000
C      -43.31180000     -35.83410000     -72.56320000
H      -43.20160000     -35.28190000     -74.65090000
H      -47.10930000     -35.68910000     -73.17820000
H      -43.67770000     -36.79810000     -70.69560000
H      -42.26320000     -35.80270000     -72.31420000
C      -46.40700000     -36.63240000     -70.59060000
H      -46.33090000     -37.69760000     -70.30390000
H      -47.46710000     -36.43380000     -70.86630000
C      -45.71680000     -35.10950000     -75.36910000
H      -44.78660000     -34.99840000     -75.92930000
H      -46.48740000     -35.65990000     -75.90890000
S      -45.98390000     -35.54760000     -69.07720000
S      -46.65310000     -33.50880000     -75.18940000
C      -47.37870000     -34.42500000     -68.85020000
H      -48.34080000     -34.90010000     -69.06780000
H      -47.41200000     -34.20100000     -67.77320000
C      -45.46860000     -32.56660000     -74.11310000
H      -45.30710000     -31.62910000     -74.60010000
H      -44.60120000     -33.22490000     -74.07650000
C      -45.99470000     -32.27640000     -72.64950000
H      -46.95720000     -31.72000000     -72.53550000
H      -46.31210000     -33.21080000     -72.29060000
C      -47.37020000     -33.19610000     -69.72780000
H      -48.39840000     -32.75160000     -69.57890000
H      -47.31910000     -33.53620000     -70.76900000
C      -46.26370000     -32.25250000     -69.35030000
C      -45.94080000     -31.93950000     -68.05880000
C      -45.21030000     -31.63100000     -70.23960000
H      -46.53310000     -32.22320000     -67.21390000
C      -44.28030000     -30.85970000     -69.57670000
C      -45.00640000     -31.57500000     -71.72390000
C      -43.90810000     -30.84840000     -72.08100000
S      -44.53710000     -30.94750000     -67.84290000
S      -43.15340000     -30.15120000     -70.64480000
H      -43.60550000     -30.69330000     -73.13720000
