40
Properties=species:S:1:pos:R:3 #=T CELL(abcABC):=T 1.889726e+02=T 90.00000=T Traj:=T positionsangstrom=T Step:=T 0=T Bead:=T pbc="F F F"
C      -49.31250000     -33.28100000     -71.10770000
C      -48.79820000     -32.17420000     -71.75110000
C      -47.94530000     -32.37210000     -72.87660000
C      -47.59680000     -33.64220000     -73.29570000
C      -48.15730000     -34.75740000     -72.62320000
C      -49.01730000     -34.59620000     -71.50740000
H      -49.96290000     -33.13750000     -70.23540000
H      -47.56390000     -31.43570000     -73.33720000
H      -47.75890000     -35.76080000     -72.91240000
H      -49.35370000     -35.53440000     -71.04960000
C      -46.80770000     -33.84220000     -74.54700000
H      -46.11420000     -33.08390000     -74.84790000
H      -47.45630000     -33.77790000     -75.37500000
C      -48.92300000     -30.72370000     -71.21500000
H      -48.64250000     -29.99140000     -72.03010000
H      -49.85890000     -30.56420000     -70.71260000
S      -46.00090000     -35.48920000     -74.70980000
S      -47.88800000     -30.48970000     -69.68130000
C      -44.64130000     -35.70780000     -73.47490000
H      -44.56750000     -36.79660000     -73.51380000
H      -43.65680000     -35.38090000     -73.80170000
C      -46.04310000     -30.75970000     -70.05180000
H      -45.58560000     -29.93570000     -69.59250000
H      -46.05410000     -30.46780000     -71.12060000
C      -45.42550000     -32.19650000     -69.84580000
H      -45.92220000     -32.51740000     -68.97380000
H      -45.83000000     -32.84090000     -70.61420000
C      -44.97300000     -35.11460000     -72.04180000
H      -45.42200000     -35.80890000     -71.36380000
H      -45.59720000     -34.19530000     -72.15730000
C      -43.68100000     -34.74470000     -71.33450000
C      -42.63920000     -35.65670000     -71.35660000
C      -43.27410000     -33.56260000     -70.54350000
H      -42.55600000     -36.64340000     -71.88550000
C      -41.95770000     -33.65950000     -70.13650000
C      -43.95450000     -32.43310000     -69.87060000
C      -43.17950000     -31.70840000     -69.01960000
S      -41.19840000     -35.20930000     -70.40140000
S      -41.47110000     -32.38040000     -68.93190000
H      -43.53050000     -30.91920000     -68.32890000
