40
Properties=species:S:1:pos:R:3 #=T CELL(abcABC):=T 1.889726e+02=T 90.00000=T Traj:=T positionsangstrom=T Step:=T 0=T Bead:=T pbc="F F F"
C      -47.95490000     -35.30150000     -72.67890000
C      -47.25090000     -36.09460000     -71.73250000
C      -47.27870000     -35.65510000     -70.45150000
C      -48.05980000     -34.51620000     -70.04790000
C      -48.60730000     -33.70980000     -71.03340000
C      -48.55850000     -34.02840000     -72.36390000
H      -47.83320000     -35.56760000     -73.77630000
H      -46.79700000     -36.23430000     -69.64160000
H      -49.14720000     -32.79200000     -70.73090000
H      -48.90580000     -33.41100000     -73.14090000
C      -48.22360000     -34.22400000     -68.59180000
H      -48.27990000     -35.08400000     -68.01510000
H      -49.09920000     -33.58320000     -68.42030000
C      -46.38750000     -37.21420000     -72.35240000
H      -46.73510000     -38.19560000     -72.02750000
H      -46.40310000     -37.34900000     -73.43700000
S      -46.80550000     -33.40440000     -67.68410000
S      -44.66270000     -37.05020000     -71.75900000
C      -46.29130000     -32.12650000     -68.88340000
H      -47.21970000     -31.80780000     -69.38750000
H      -45.84490000     -31.32730000     -68.29750000
C      -44.35680000     -35.31110000     -72.31620000
H      -45.23240000     -34.58820000     -72.14580000
H      -44.28360000     -35.20760000     -73.43590000
C      -43.16180000     -34.58700000     -71.74890000
H      -43.21660000     -34.59500000     -70.65330000
H      -42.20430000     -35.06850000     -71.83280000
C      -45.24150000     -32.69360000     -69.85680000
H      -45.79380000     -33.40970000     -70.50360000
H      -44.55870000     -33.18890000     -69.26310000
C      -44.55280000     -31.64280000     -70.71730000
C      -44.84530000     -30.30010000     -70.61780000
C      -43.61700000     -31.98330000     -71.76380000
H      -45.57470000     -29.86920000     -69.87930000
C      -43.32620000     -30.81100000     -72.52080000
C      -43.04420000     -33.17610000     -72.29260000
C      -42.37780000     -32.93450000     -73.44790000
S      -44.05780000     -29.36840000     -71.94280000
S      -42.42780000     -31.22170000     -73.94650000
H      -41.93650000     -33.72610000     -74.01800000
