40
Properties=species:S:1:pos:R:3 #=T CELL(abcABC):=T 1.889726e+02=T 90.00000=T Traj:=T positionsangstrom=T Step:=T 0=T Bead:=T pbc="F F F"
C      -48.56440000     -32.38590000     -72.82160000
C      -47.93830000     -31.51400000     -71.92600000
C      -46.62510000     -31.04390000     -72.28550000
C      -46.09070000     -31.25550000     -73.56290000
C      -46.77780000     -32.12160000     -74.46060000
C      -47.94630000     -32.77040000     -74.01150000
H      -49.39320000     -32.90650000     -72.50590000
H      -46.13730000     -30.46590000     -71.53580000
H      -46.34910000     -32.41960000     -75.40330000
H      -48.46020000     -33.50350000     -74.59110000
C      -44.73250000     -30.65540000     -74.14040000
H      -44.87310000     -29.87330000     -74.91830000
H      -44.24060000     -31.57830000     -74.58810000
C      -48.49680000     -31.30870000     -70.54220000
H      -47.75430000     -30.86370000     -69.83860000
H      -49.36360000     -30.61520000     -70.61170000
S      -43.55450000     -30.07980000     -72.82350000
S      -49.13680000     -32.84090000     -69.70040000
C      -42.62660000     -31.65620000     -72.34350000
H      -42.19800000     -32.10170000     -73.31290000
H      -41.80550000     -31.29270000     -71.63970000
C      -47.82880000     -34.07180000     -69.74230000
H      -48.13010000     -34.96430000     -70.34740000
H      -47.76670000     -34.47230000     -68.72410000
C      -46.41790000     -33.66950000     -70.09860000
H      -46.35520000     -33.17400000     -71.06610000
H      -46.06770000     -32.84620000     -69.43150000
C      -43.61720000     -32.60930000     -71.65840000
H      -44.40740000     -32.86850000     -72.42710000
H      -44.16250000     -32.02570000     -70.97160000
C      -43.07440000     -33.87950000     -71.03050000
C      -41.76590000     -34.35510000     -71.07940000
C      -43.98180000     -34.83070000     -70.35760000
H      -40.81000000     -33.93950000     -71.36290000
C      -43.36490000     -36.03470000     -70.11710000
C      -45.39440000     -34.79600000     -69.99630000
C      -45.79990000     -36.03030000     -69.43450000
S      -41.70430000     -36.06420000     -70.63230000
S      -44.46800000     -37.20300000     -69.42170000
H      -46.77500000     -36.38510000     -69.18410000
