40
Properties=species:S:1:pos:R:3 #=T CELL(abcABC):=T 1.889726e+02=T 90.00000=T Traj:=T positionsangstrom=T Step:=T 0=T Bead:=T pbc="F F F"
C      -47.83770000     -35.05440000     -72.68290000
C      -47.21150000     -35.91970000     -71.79730000
C      -47.33490000     -35.58980000     -70.43790000
C      -47.96140000     -34.47580000     -69.96320000
C      -48.66590000     -33.66230000     -70.90770000
C      -48.56760000     -33.93930000     -72.24090000
H      -47.89570000     -35.42380000     -73.68140000
H      -46.71850000     -36.29510000     -69.79360000
H      -49.26270000     -32.80560000     -70.55480000
H      -49.11340000     -33.34310000     -72.94990000
C      -48.22070000     -34.15930000     -68.54370000
H      -48.63120000     -35.07890000     -67.99080000
H      -49.05950000     -33.45500000     -68.43340000
C      -46.49370000     -37.20410000     -72.12540000
H      -46.84360000     -37.97330000     -71.39690000
H      -46.77890000     -37.46470000     -73.14990000
S      -46.82220000     -33.52170000     -67.56770000
S      -44.59950000     -37.03360000     -71.89380000
C      -46.10960000     -32.23420000     -68.69200000
H      -46.89960000     -31.71610000     -69.20100000
H      -45.70870000     -31.45780000     -68.04000000
C      -44.23040000     -35.36700000     -72.63260000
H      -45.16830000     -34.87070000     -72.59760000
H      -43.93140000     -35.62590000     -73.61800000
C      -43.15990000     -34.59040000     -71.86340000
H      -43.49120000     -34.60060000     -70.77540000
H      -42.20090000     -35.10780000     -71.93210000
C      -45.10550000     -32.77240000     -69.69490000
H      -45.58700000     -33.66480000     -70.15220000
H      -44.27200000     -33.23150000     -69.12670000
C      -44.56250000     -31.70210000     -70.69050000
C      -44.77030000     -30.32260000     -70.64580000
C      -43.78560000     -32.03640000     -71.86720000
H      -45.29460000     -29.78890000     -69.83710000
C      -43.57910000     -30.89310000     -72.64780000
C      -43.12460000     -33.20080000     -72.40390000
C      -42.45930000     -32.87990000     -73.55640000
S      -44.02760000     -29.40080000     -71.94500000
S      -42.50280000     -31.19180000     -73.97670000
H      -41.73320000     -33.47070000     -74.04360000
