40
Properties=species:S:1:pos:R:3 #=T CELL(abcABC):=T 1.889726e+02=T 90.00000=T Traj:=T positionsangstrom=T Step:=T 0=T Bead:=T pbc="F F F"
C      -44.09210000     -35.42150000     -75.28610000
C      -43.62540000     -35.29310000     -73.99580000
C      -43.10930000     -34.01330000     -73.60030000
C      -43.29910000     -32.88230000     -74.32700000
C      -43.85720000     -33.10380000     -75.61100000
C      -44.12740000     -34.31960000     -76.19500000
H      -44.49080000     -36.40050000     -75.73070000
H      -42.71450000     -33.88530000     -72.61920000
H      -44.14420000     -32.19370000     -76.18600000
H      -44.30720000     -34.56620000     -77.20150000
C      -42.83540000     -31.45990000     -74.01100000
H      -43.39230000     -30.72520000     -74.59750000
H      -41.94130000     -31.14950000     -74.41310000
C      -43.73470000     -36.48620000     -72.96470000
H      -43.21870000     -37.34340000     -73.47170000
H      -43.19400000     -36.15650000     -72.06680000
S      -42.73660000     -30.87150000     -72.20810000
S      -45.49600000     -36.92730000     -72.61090000
C      -44.41100000     -31.30710000     -71.45510000
H      -45.00260000     -30.44020000     -71.52780000
H      -44.84490000     -32.10110000     -72.09680000
C      -46.18700000     -35.41320000     -71.78330000
H      -47.30930000     -35.60680000     -71.84170000
H      -45.93820000     -34.47010000     -72.32820000
C      -45.59050000     -35.16550000     -70.33580000
H      -45.37520000     -36.04510000     -69.82370000
H      -44.58380000     -34.72510000     -70.46400000
C      -44.11240000     -31.74710000     -69.98380000
H      -43.37110000     -31.03170000     -69.60310000
H      -43.67970000     -32.75340000     -69.89430000
C      -45.37310000     -31.70810000     -69.18900000
C      -45.97310000     -30.50260000     -68.80390000
C      -46.29570000     -32.88850000     -69.02570000
H      -45.58980000     -29.47500000     -68.77280000
C      -47.43870000     -32.54380000     -68.25500000
C      -46.47210000     -34.30730000     -69.47370000
C      -47.60520000     -34.95770000     -68.94050000
S      -47.60010000     -30.78000000     -68.05270000
S      -48.62360000     -33.82510000     -68.05560000
H      -47.79830000     -35.93180000     -69.10210000
