40
Properties=species:S:1:pos:R:3 #=T CELL(abcABC):=T 1.889726e+02=T 90.00000=T Traj:=T positionsangstrom=T Step:=T 0=T Bead:=T pbc="F F F"
C      -48.35030000     -33.64890000     -73.52570000
C      -48.28400000     -32.46400000     -72.68690000
C      -47.21180000     -31.56810000     -72.87390000
C      -46.25230000     -31.70830000     -73.90460000
C      -46.41120000     -32.78980000     -74.76560000
C      -47.44150000     -33.72940000     -74.57110000
H      -49.08660000     -34.41510000     -73.50990000
H      -47.06980000     -30.79200000     -72.12440000
H      -45.75680000     -32.90080000     -75.59010000
H      -47.64660000     -34.60910000     -75.17270000
C      -45.21610000     -30.68280000     -74.26150000
H      -45.77820000     -29.93760000     -74.80820000
H      -44.47940000     -31.15120000     -74.87540000
C      -49.27020000     -32.26900000     -71.44570000
H      -49.06020000     -31.24850000     -71.06320000
H      -50.27680000     -32.45980000     -71.74310000
S      -44.41890000     -29.80170000     -72.89080000
S      -49.03260000     -33.46240000     -70.02500000
C      -43.39310000     -31.06140000     -71.92760000
H      -42.45980000     -31.34800000     -72.46310000
H      -42.97430000     -30.48160000     -71.13110000
C      -47.22400000     -33.59850000     -69.75720000
H      -47.12840000     -33.87040000     -68.75590000
H      -46.79930000     -32.63440000     -69.81430000
C      -46.46310000     -34.48950000     -70.71350000
H      -47.17290000     -35.18320000     -71.12250000
H      -46.26000000     -33.83390000     -71.56220000
C      -44.08040000     -32.30250000     -71.44180000
H      -44.52120000     -32.74190000     -72.34870000
H      -44.97810000     -31.98880000     -70.77600000
C      -43.24640000     -33.38560000     -70.75410000
C      -41.92450000     -33.37760000     -70.58950000
C      -43.89470000     -34.51570000     -70.14570000
H      -41.23290000     -32.74470000     -71.10110000
C      -42.95490000     -35.37290000     -69.52390000
C      -45.22220000     -35.12260000     -70.05900000
C      -45.18140000     -36.32260000     -69.42320000
S      -41.30010000     -34.77680000     -69.70400000
S      -43.63320000     -36.76850000     -68.77160000
H      -45.94330000     -37.04760000     -69.34040000
