40
Properties=species:S:1:pos:R:3 #=T CELL(abcABC):=T 1.889726e+02=T 90.00000=T Traj:=T positionsangstrom=T Step:=T 0=T Bead:=T pbc="F F F"
C      -47.99250000     -33.77720000     -73.61940000
C      -47.96180000     -32.73870000     -72.69890000
C      -47.24500000     -31.54750000     -72.89210000
C      -46.36340000     -31.43920000     -73.97040000
C      -46.36260000     -32.53440000     -74.89740000
C      -47.21260000     -33.59600000     -74.78460000
H      -48.50820000     -34.69130000     -73.44140000
H      -47.51030000     -30.69000000     -72.28370000
H      -45.73290000     -32.48180000     -75.77190000
H      -47.11570000     -34.30230000     -75.56400000
C      -45.42640000     -30.28450000     -74.23660000
H      -45.99380000     -29.43160000     -74.68830000
H      -44.71660000     -30.56610000     -74.92890000
C      -49.02440000     -32.71290000     -71.55220000
H      -48.94080000     -31.81290000     -70.97270000
H      -49.97150000     -32.54450000     -72.03120000
S      -44.74180000     -29.72620000     -72.65420000
S      -49.11610000     -33.99150000     -70.28240000
C      -43.69210000     -31.17980000     -72.21910000
H      -43.24450000     -31.39400000     -73.19650000
H      -42.90080000     -30.68950000     -71.61060000
C      -47.39050000     -34.06170000     -69.57060000
H      -47.39510000     -34.48710000     -68.59370000
H      -46.95860000     -33.07280000     -69.52080000
C      -46.47550000     -34.94390000     -70.47670000
H      -47.03840000     -35.86640000     -70.72100000
H      -46.37760000     -34.39500000     -71.45790000
C      -44.38830000     -32.32920000     -71.46230000
H      -45.10960000     -32.81040000     -72.22650000
H      -45.06530000     -31.83010000     -70.74090000
C      -43.42670000     -33.23240000     -70.78440000
C      -42.08330000     -33.05340000     -70.64940000
C      -43.88930000     -34.54920000     -70.13070000
H      -41.52590000     -32.21470000     -71.02400000
C      -42.79600000     -35.10340000     -69.44240000
C      -45.13550000     -35.31990000     -69.92340000
C      -44.93640000     -36.43150000     -69.18230000
S      -41.31070000     -34.27720000     -69.70290000
S      -43.26170000     -36.62160000     -68.68780000
H      -45.69480000     -37.17380000     -69.10460000
