40
Properties=species:S:1:pos:R:3 #=T CELL(abcABC):=T 1.889726e+02=T 90.00000=T Traj:=T positionsangstrom=T Step:=T 0=T Bead:=T pbc="F F F"
C      -48.34040000     -33.53050000     -73.42680000
C      -48.24400000     -32.33860000     -72.66820000
C      -47.19460000     -31.39620000     -72.97050000
C      -46.25220000     -31.64370000     -74.02420000
C      -46.36040000     -32.83670000     -74.71200000
C      -47.34330000     -33.75660000     -74.41100000
H      -49.15940000     -34.26900000     -73.17910000
H      -47.15400000     -30.47140000     -72.35820000
H      -45.61430000     -33.07990000     -75.52300000
H      -47.42040000     -34.64610000     -74.96880000
C      -45.14370000     -30.60500000     -74.34300000
H      -45.52920000     -29.75910000     -74.93810000
H      -44.21980000     -31.07160000     -74.75610000
C      -49.10160000     -32.20940000     -71.44410000
H      -48.84220000     -31.30470000     -70.89030000
H      -50.18200000     -32.07500000     -71.71440000
S      -44.61430000     -29.78180000     -72.79840000
S      -49.16320000     -33.73750000     -70.38430000
C      -43.52390000     -31.07020000     -72.08060000
H      -42.72730000     -31.35950000     -72.76670000
H      -42.92020000     -30.54210000     -71.23530000
C      -47.33140000     -33.78430000     -69.79010000
H      -47.27980000     -33.95400000     -68.68000000
H      -46.96390000     -32.78520000     -69.96070000
C      -46.51960000     -34.89890000     -70.59560000
H      -47.24530000     -35.74320000     -70.63640000
H      -46.31960000     -34.36990000     -71.53130000
C      -44.27270000     -32.28310000     -71.37440000
H      -44.91700000     -32.87090000     -72.13600000
H      -45.02470000     -31.91920000     -70.61770000
C      -43.37870000     -33.34010000     -70.75450000
C      -42.01910000     -33.14580000     -70.55520000
C      -43.88510000     -34.57680000     -70.16710000
H      -41.42330000     -32.28320000     -70.80850000
C      -42.84830000     -35.33680000     -69.58410000
C      -45.18300000     -35.32120000     -69.94670000
C      -44.94390000     -36.43870000     -69.20260000
S      -41.32300000     -34.48400000     -69.66380000
S      -43.33330000     -36.76160000     -68.72010000
H      -45.74690000     -37.06630000     -68.83750000
