40
Properties=species:S:1:pos:R:3 #=T CELL(abcABC):=T 1.889726e+02=T 90.00000=T Traj:=T positionsangstrom=T Step:=T 0=T Bead:=T pbc="F F F"
C      -48.15600000     -33.78310000     -73.52060000
C      -48.18110000     -32.58580000     -72.73990000
C      -47.37470000     -31.47010000     -73.03360000
C      -46.39570000     -31.52190000     -74.10890000
C      -46.41960000     -32.68480000     -74.89110000
C      -47.24570000     -33.75870000     -74.58980000
H      -48.76540000     -34.59490000     -73.18470000
H      -47.33880000     -30.67420000     -72.29030000
H      -45.66270000     -32.83400000     -75.67450000
H      -47.16980000     -34.69970000     -75.20380000
C      -45.40730000     -30.33720000     -74.32480000
H      -45.93000000     -29.49230000     -74.69680000
H      -44.63450000     -30.60580000     -75.10950000
C      -48.99180000     -32.39640000     -71.53870000
H      -48.65700000     -31.46370000     -71.07010000
H      -50.04170000     -32.38260000     -71.86060000
S      -44.63040000     -29.78200000     -72.73180000
S      -49.03710000     -33.82260000     -70.28970000
C      -43.65540000     -31.14750000     -72.00860000
H      -42.92400000     -31.52280000     -72.72560000
H      -43.09160000     -30.64660000     -71.23070000
C      -47.33370000     -34.02420000     -69.52440000
H      -47.53360000     -34.58430000     -68.62800000
H      -46.97860000     -33.05580000     -69.23260000
C      -46.41500000     -34.82000000     -70.52190000
H      -46.88890000     -35.73680000     -70.87080000
H      -46.18120000     -34.29720000     -71.42470000
C      -44.41990000     -32.40800000     -71.45990000
H      -44.70450000     -33.00350000     -72.28760000
H      -45.31600000     -32.15020000     -70.85210000
C      -43.44560000     -33.27060000     -70.66500000
C      -42.06500000     -33.04030000     -70.61470000
C      -43.91740000     -34.43890000     -69.98570000
H      -41.41290000     -32.24410000     -70.99510000
C      -42.83780000     -35.13320000     -69.40010000
C      -45.08510000     -35.27140000     -69.92730000
C      -44.97260000     -36.42540000     -69.20250000
S      -41.28080000     -34.39020000     -69.76870000
S      -43.31370000     -36.71770000     -68.74590000
H      -45.75720000     -37.18840000     -69.08900000
