40
Properties=species:S:1:pos:R:3 #=T CELL(abcABC):=T 1.889726e+02=T 90.00000=T Traj:=T positionsangstrom=T Step:=T 0=T Bead:=T pbc="F F F"
C      -48.28000000     -33.70100000     -73.49780000
C      -48.24810000     -32.79510000     -72.44660000
C      -47.58020000     -31.57130000     -72.67800000
C      -46.80240000     -31.37760000     -73.84710000
C      -46.78800000     -32.37920000     -74.87360000
C      -47.52680000     -33.61400000     -74.66100000
H      -48.79860000     -34.65500000     -73.26920000
H      -47.69660000     -30.74900000     -71.97000000
H      -46.03860000     -32.37130000     -75.75720000
H      -47.54450000     -34.51140000     -75.28940000
C      -46.02080000     -30.06950000     -73.89810000
H      -46.73370000     -29.23820000     -74.15010000
H      -45.21470000     -30.03940000     -74.63250000
C      -49.02180000     -32.96580000     -71.24180000
H      -48.74090000     -32.01180000     -70.70490000
H      -50.09210000     -33.00630000     -71.44400000
S      -45.28900000     -29.60840000     -72.25150000
S      -48.84180000     -34.63390000     -70.40420000
C      -44.09160000     -30.90580000     -71.93490000
H      -43.57210000     -31.28220000     -72.86210000
H      -43.22200000     -30.44750000     -71.39720000
C      -46.96220000     -34.64430000     -69.99640000
H      -46.84810000     -35.05920000     -69.03090000
H      -46.76360000     -33.56780000     -69.88970000
C      -46.08830000     -35.27340000     -70.94310000
H      -46.44540000     -36.29890000     -71.19540000
H      -46.03390000     -34.82480000     -71.94700000
C      -44.65390000     -32.11520000     -71.16300000
H      -45.36880000     -32.64100000     -71.75490000
H      -45.11860000     -31.77640000     -70.27060000
C      -43.50780000     -33.01630000     -70.53130000
C      -42.25040000     -32.55370000     -70.26880000
C      -43.70860000     -34.39550000     -70.16290000
H      -42.00920000     -31.49400000     -70.31220000
C      -42.54730000     -34.94780000     -69.62220000
C      -44.71480000     -35.44030000     -70.31960000
C      -44.25330000     -36.67160000     -69.89950000
S      -41.23600000     -33.82850000     -69.57760000
S      -42.55950000     -36.65840000     -69.35400000
H      -44.76610000     -37.62640000     -69.77720000
