40
Properties=species:S:1:pos:R:3 #=T CELL(abcABC):=T 1.889726e+02=T 90.00000=T Traj:=T positionsangstrom=T Step:=T 0=T Bead:=T pbc="F F F"
C      -48.39190000     -33.73990000     -73.64620000
C      -48.37380000     -32.79640000     -72.57620000
C      -47.47610000     -31.71990000     -72.68220000
C      -46.60380000     -31.59900000     -73.81260000
C      -46.70410000     -32.50760000     -74.86440000
C      -47.63030000     -33.60030000     -74.78790000
H      -49.05130000     -34.57950000     -73.44080000
H      -47.37180000     -31.10890000     -71.74810000
H      -45.98690000     -32.53200000     -75.64560000
H      -47.58970000     -34.37510000     -75.57100000
C      -45.58120000     -30.47180000     -73.96470000
H      -45.92120000     -29.67100000     -74.62540000
H      -44.67840000     -30.75850000     -74.54350000
C      -49.23020000     -32.92550000     -71.40570000
H      -49.21190000     -32.10140000     -70.71970000
H      -50.32670000     -33.04480000     -71.73050000
S      -44.97870000     -29.57480000     -72.44310000
S      -48.97340000     -34.60580000     -70.53810000
C      -43.71690000     -30.75720000     -71.86030000
H      -42.82810000     -30.72730000     -72.59850000
H      -43.25010000     -30.48500000     -70.85660000
C      -47.29070000     -34.47390000     -69.76860000
H      -47.21590000     -35.22240000     -68.96430000
H      -47.15700000     -33.50250000     -69.26450000
C      -46.22550000     -34.76770000     -70.83660000
H      -46.47390000     -35.63270000     -71.44360000
H      -46.08240000     -33.87410000     -71.38280000
C      -44.17950000     -32.18340000     -71.57700000
H      -44.63170000     -32.53990000     -72.46550000
H      -45.01380000     -31.94770000     -70.93340000
C      -43.27000000     -33.13080000     -70.84700000
C      -41.96830000     -32.89450000     -70.65800000
C      -43.67820000     -34.35230000     -70.16880000
H      -41.45280000     -32.01160000     -70.95660000
C      -42.66180000     -34.88870000     -69.40990000
C      -44.88550000     -35.19170000     -70.18030000
C      -44.64800000     -36.35450000     -69.52300000
S      -41.15800000     -34.05560000     -69.58330000
S      -43.06210000     -36.53020000     -68.77990000
H      -45.26140000     -37.28730000     -69.53540000
