40
Properties=species:S:1:pos:R:3 #=T CELL(abcABC):=T 1.889726e+02=T 90.00000=T Traj:=T positionsangstrom=T Step:=T 0=T Bead:=T pbc="F F F"
C      -43.25000000     -36.31050000     -73.78850000
C      -43.12310000     -35.68030000     -72.52420000
C      -42.87690000     -34.32540000     -72.38010000
C      -42.74580000     -33.58300000     -73.58090000
C      -42.91040000     -34.19750000     -74.82000000
C      -43.17270000     -35.51290000     -74.94570000
H      -43.70780000     -37.28340000     -73.84500000
H      -42.68640000     -33.87590000     -71.43020000
H      -42.62180000     -33.68320000     -75.72220000
H      -43.13430000     -35.91880000     -75.96390000
C      -42.38820000     -32.07410000     -73.62450000
H      -43.13340000     -31.57820000     -74.15360000
H      -41.47120000     -31.97480000     -74.25620000
C      -43.25520000     -36.49760000     -71.18440000
H      -42.64310000     -37.40000000     -71.27590000
H      -42.91750000     -35.91240000     -70.33790000
S      -42.14300000     -31.14070000     -72.04380000
S      -44.91060000     -37.14990000     -70.82880000
C      -43.82140000     -30.70760000     -71.56870000
H      -43.73900000     -29.83440000     -70.84720000
H      -44.45070000     -30.40770000     -72.45970000
C      -45.83820000     -35.56720000     -70.49320000
H      -46.88630000     -35.76310000     -70.66110000
H      -45.37830000     -34.89290000     -71.23830000
C      -45.87920000     -34.76460000     -69.18110000
H      -46.14770000     -35.32630000     -68.31050000
H      -44.98260000     -34.15640000     -69.15530000
C      -44.52160000     -31.90870000     -70.88240000
H      -44.12230000     -31.92140000     -69.84800000
H      -44.32260000     -32.80650000     -71.41390000
C      -46.04620000     -31.63610000     -70.66930000
C      -46.69850000     -30.58890000     -71.32250000
C      -47.04300000     -32.49010000     -69.96880000
H      -46.25040000     -29.82210000     -72.04240000
C      -48.32800000     -31.91230000     -69.93980000
C      -47.06930000     -33.75790000     -69.27440000
C      -48.28600000     -34.01300000     -68.72710000
S      -48.36100000     -30.46630000     -70.93220000
S      -49.49780000     -32.82160000     -69.09430000
H      -48.34380000     -34.78620000     -68.02170000
