40
Properties=species:S:1:pos:R:3 #=T CELL(abcABC):=T 1.889726e+02=T 90.00000=T Traj:=T positionsangstrom=T Step:=T 0=T Bead:=T pbc="F F F"
C      -43.44510000     -36.15180000     -73.79430000
C      -43.00980000     -35.61130000     -72.55280000
C      -42.59420000     -34.24770000     -72.54720000
C      -42.67900000     -33.47280000     -73.72990000
C      -43.00740000     -34.08740000     -74.95660000
C      -43.36900000     -35.41190000     -74.97910000
H      -43.61980000     -37.23500000     -73.81060000
H      -42.30220000     -33.78500000     -71.64970000
H      -43.30260000     -33.51920000     -75.84930000
H      -43.71340000     -35.72440000     -75.99210000
C      -42.26900000     -32.08080000     -73.67590000
H      -42.87100000     -31.35060000     -74.24910000
H      -41.25290000     -31.99590000     -74.13020000
C      -43.11630000     -36.30760000     -71.25740000
H      -42.43450000     -37.14330000     -71.22180000
H      -42.74310000     -35.60880000     -70.46420000
S      -42.07830000     -31.34930000     -71.96320000
S      -44.81070000     -36.85360000     -70.72300000
C      -43.77140000     -31.00830000     -71.28980000
H      -43.70150000     -30.39690000     -70.46590000
H      -44.26850000     -30.37010000     -72.09250000
C      -45.98970000     -35.43230000     -70.74830000
H      -46.91470000     -35.89310000     -71.08440000
H      -45.78620000     -34.71850000     -71.56930000
C      -45.99040000     -34.78320000     -69.35050000
H      -46.07740000     -35.61150000     -68.64330000
H      -45.05600000     -34.32430000     -69.08900000
C      -44.66940000     -32.24530000     -71.20560000
H      -44.34240000     -32.94270000     -70.42910000
H      -44.74000000     -32.77570000     -72.19590000
C      -46.11250000     -31.72430000     -70.76120000
C      -46.69060000     -30.55890000     -71.25380000
C      -47.07480000     -32.58560000     -70.10680000
H      -46.31700000     -29.86770000     -72.12300000
C      -48.35800000     -32.04070000     -69.93510000
C      -47.08870000     -33.80870000     -69.24530000
C      -48.17830000     -33.98550000     -68.53590000
S      -48.47060000     -30.47700000     -70.85260000
S      -49.46830000     -32.86700000     -68.90380000
H      -48.27970000     -34.89080000     -67.92970000
