40
Properties=species:S:1:pos:R:3 #=T CELL(abcABC):=T 1.889726e+02=T 90.00000=T Traj:=T positionsangstrom=T Step:=T 0=T Bead:=T pbc="F F F"
C      -43.66390000     -36.03310000     -73.75020000
C      -43.05750000     -35.61670000     -72.55400000
C      -42.60090000     -34.30140000     -72.46480000
C      -42.74000000     -33.47490000     -73.53050000
C      -43.45520000     -33.83580000     -74.67690000
C      -43.97680000     -35.10470000     -74.74800000
H      -43.84120000     -37.10140000     -73.94050000
H      -42.02240000     -34.00740000     -71.59400000
H      -43.89460000     -33.18130000     -75.41010000
H      -44.33060000     -35.41300000     -75.74770000
C      -42.18480000     -32.02200000     -73.44780000
H      -42.61040000     -31.36850000     -74.24700000
H      -41.14200000     -32.06820000     -73.70430000
C      -42.98870000     -36.53570000     -71.33470000
H      -42.46820000     -37.46350000     -71.48960000
H      -42.51500000     -35.99940000     -70.45980000
S      -42.22750000     -31.28510000     -71.76010000
S      -44.65080000     -37.10940000     -70.77550000
C      -43.94360000     -30.89800000     -71.65320000
H      -44.06330000     -30.54120000     -70.69090000
H      -44.18460000     -29.96820000     -72.29250000
C      -45.71680000     -35.67890000     -70.89240000
H      -46.75500000     -35.95230000     -71.19350000
H      -45.40960000     -35.16150000     -71.77170000
C      -45.73240000     -34.84030000     -69.64190000
H      -45.75290000     -35.52440000     -68.74250000
H      -44.75680000     -34.44740000     -69.54350000
C      -44.86590000     -32.09280000     -71.71690000
H      -44.47790000     -32.91000000     -71.16780000
H      -45.02880000     -32.45000000     -72.76140000
C      -46.23720000     -31.76030000     -71.10770000
C      -46.95100000     -30.71230000     -71.54360000
C      -46.95010000     -32.54460000     -70.09310000
H      -46.52790000     -29.88860000     -72.16930000
C      -48.17960000     -31.93880000     -69.82130000
C      -46.84820000     -33.79750000     -69.47140000
C      -47.88700000     -34.01440000     -68.55670000
S      -48.51900000     -30.49860000     -70.77890000
S      -49.21780000     -32.77570000     -68.66480000
H      -47.96900000     -34.90470000     -67.94540000
