40
Properties=species:S:1:pos:R:3 #=T CELL(abcABC):=T 1.889726e+02=T 90.00000=T Traj:=T positionsangstrom=T Step:=T 0=T Bead:=T pbc="F F F"
C      -48.64130000     -30.65760000     -71.06950000
C      -47.44690000     -30.90810000     -70.34480000
C      -46.23110000     -30.48230000     -70.86610000
C      -46.23070000     -29.83530000     -72.12500000
C      -47.44120000     -29.50980000     -72.80710000
C      -48.67170000     -29.97300000     -72.28690000
H      -49.53600000     -31.07000000     -70.74220000
H      -45.32660000     -30.63480000     -70.24980000
H      -47.34250000     -28.99420000     -73.81970000
H      -49.62150000     -29.71270000     -72.68750000
C      -44.89650000     -29.47830000     -72.60930000
H      -44.17500000     -29.22680000     -71.83770000
H      -44.81250000     -28.54350000     -73.16180000
C      -47.47290000     -31.52070000     -68.90770000
H      -46.45190000     -31.68910000     -68.55020000
H      -47.80980000     -30.84790000     -67.99580000
S      -44.14870000     -30.75830000     -73.69290000
S      -48.24240000     -33.19600000     -68.68540000
C      -44.49310000     -32.37650000     -72.87050000
H      -45.49170000     -32.47380000     -72.43660000
H      -44.49420000     -33.11120000     -73.68030000
C      -47.15650000     -34.60910000     -69.13030000
H      -47.73720000     -35.33730000     -69.70450000
H      -46.80330000     -35.00960000     -68.13680000
C      -45.83510000     -34.12510000     -69.86500000
H      -46.16120000     -33.53280000     -70.75290000
H      -45.14130000     -33.52390000     -69.32240000
C      -43.39910000     -32.84540000     -71.77760000
H      -43.71220000     -32.46370000     -70.76100000
H      -42.47150000     -32.32780000     -71.99140000
C      -43.10720000     -34.33570000     -71.84280000
C      -42.04060000     -34.83120000     -72.53660000
C      -43.96050000     -35.38350000     -71.28530000
H      -41.17240000     -34.38500000     -73.13800000
C      -43.41670000     -36.66540000     -71.50610000
C      -45.12840000     -35.37450000     -70.44750000
C      -45.62090000     -36.64540000     -70.24450000
S      -41.90310000     -36.60500000     -72.40000000
S      -44.52430000     -37.86510000     -70.88900000
H      -46.47570000     -36.98100000     -69.64770000
