40
Properties=species:S:1:pos:R:3 #=T CELL(abcABC):=T 1.889726e+02=T 90.00000=T Traj:=T positionsangstrom=T Step:=T 0=T Bead:=T pbc="F F F"
C      -44.45930000     -36.13870000     -73.43030000
C      -43.49260000     -35.83050000     -72.38780000
C      -42.70350000     -34.72240000     -72.51280000
C      -42.75930000     -33.86980000     -73.60570000
C      -43.65350000     -34.10700000     -74.60360000
C      -44.58660000     -35.27480000     -74.49810000
H      -45.04480000     -37.01790000     -73.29330000
H      -42.10720000     -34.33210000     -71.69410000
H      -43.68970000     -33.35610000     -75.39240000
H      -45.43870000     -35.34410000     -75.17550000
C      -41.86650000     -32.59460000     -73.66930000
H      -42.24050000     -31.90230000     -74.47980000
H      -40.86920000     -32.96180000     -73.79350000
C      -43.52710000     -36.70150000     -71.09770000
H      -43.08460000     -37.63140000     -71.34190000
H      -42.92010000     -36.12390000     -70.34270000
S      -41.92370000     -31.70970000     -72.12160000
S      -45.24620000     -37.06440000     -70.56310000
C      -43.63380000     -31.20560000     -71.96840000
H      -43.58210000     -30.31380000     -71.41040000
H      -44.13190000     -30.95200000     -72.89920000
C      -46.13640000     -35.49070000     -70.50860000
H      -47.22020000     -35.77410000     -70.54420000
H      -45.88900000     -34.98350000     -71.44470000
C      -45.76650000     -34.53240000     -69.21150000
H      -45.73460000     -35.12340000     -68.33580000
H      -44.74490000     -34.06690000     -69.24360000
C      -44.44340000     -32.24140000     -71.25240000
H      -44.07360000     -32.50210000     -70.25270000
H      -44.45050000     -33.21410000     -71.79470000
C      -45.89050000     -31.74760000     -71.08240000
C      -46.41620000     -30.72840000     -71.82400000
C      -46.79540000     -32.33580000     -70.11090000
H      -45.97540000     -30.02600000     -72.51090000
C      -48.04220000     -31.70900000     -70.11450000
C      -46.74240000     -33.40700000     -69.15410000
C      -47.81700000     -33.38320000     -68.29450000
S      -48.06740000     -30.37610000     -71.27310000
S      -49.04680000     -32.16870000     -68.75650000
H      -48.11610000     -34.10710000     -67.54040000
