40
Properties=species:S:1:pos:R:3 #=T CELL(abcABC):=T 1.889726e+02=T 90.00000=T Traj:=T positionsangstrom=T Step:=T 0=T Bead:=T pbc="F F F"
C      -47.72770000     -34.53980000     -72.47760000
C      -47.39020000     -35.60200000     -71.64140000
C      -47.49690000     -35.50950000     -70.18770000
C      -47.93870000     -34.30650000     -69.65940000
C      -48.32710000     -33.25830000     -70.54740000
C      -48.13620000     -33.31390000     -71.91980000
H      -47.65500000     -34.63770000     -73.53960000
H      -47.34830000     -36.30370000     -69.49550000
H      -48.64990000     -32.32920000     -70.03880000
H      -48.25180000     -32.44350000     -72.50060000
C      -48.05190000     -34.09160000     -68.20560000
H      -48.36640000     -34.94680000     -67.62940000
H      -48.76190000     -33.35500000     -67.82710000
C      -46.83700000     -36.90150000     -72.24090000
H      -47.19040000     -37.68370000     -71.63170000
H      -47.06170000     -37.04100000     -73.31080000
S      -46.39470000     -33.76670000     -67.50060000
S      -44.93840000     -36.90950000     -72.02960000
C      -45.53620000     -32.53480000     -68.51810000
H      -46.30770000     -31.72360000     -68.59220000
H      -44.64470000     -32.18950000     -67.95750000
C      -44.56430000     -35.32470000     -72.88080000
H      -45.44910000     -34.68100000     -72.76760000
H      -44.36890000     -35.58520000     -73.90210000
C      -43.27180000     -34.74970000     -72.25440000
H      -43.25520000     -34.90890000     -71.17390000
H      -42.43370000     -35.27420000     -72.67080000
C      -45.02650000     -33.07720000     -69.81210000
H      -45.79340000     -33.60810000     -70.44160000
H      -44.09210000     -33.71770000     -69.60980000
C      -44.55810000     -31.97680000     -70.75560000
C      -44.68680000     -30.60310000     -70.56130000
C      -43.81840000     -32.22340000     -71.95070000
H      -45.15560000     -30.06800000     -69.72090000
C      -43.60300000     -31.03420000     -72.72020000
C      -43.21230000     -33.30520000     -72.68470000
C      -42.54470000     -32.90960000     -73.83970000
S      -44.12240000     -29.60240000     -71.86050000
S      -42.71790000     -31.18420000     -74.19140000
H      -42.15370000     -33.70000000     -74.52620000
