40
Properties=species:S:1:pos:R:3 #=T CELL(abcABC):=T 1.889726e+02=T 90.00000=T Traj:=T positionsangstrom=T Step:=T 0=T Bead:=T pbc="F F F"
C      -46.15110000     -30.76430000     -74.47030000
C      -46.25210000     -32.21770000     -74.51940000
C      -47.25240000     -32.95050000     -73.82020000
C      -48.31690000     -32.28580000     -73.24830000
C      -48.33880000     -30.90860000     -73.31270000
C      -47.32350000     -30.15960000     -74.04020000
H      -45.30240000     -30.22590000     -74.95250000
H      -47.17650000     -34.00980000     -73.75850000
H      -49.15140000     -30.32710000     -72.88930000
H      -47.36680000     -29.05920000     -74.00880000
C      -49.17530000     -33.19080000     -72.43020000
H      -49.08990000     -34.19440000     -72.77490000
H      -50.18770000     -32.88790000     -72.48660000
C      -45.03770000     -33.07200000     -75.08610000
H      -45.35130000     -34.13420000     -75.10120000
H      -44.81120000     -32.75060000     -76.07440000
S      -48.86500000     -33.19810000     -70.51120000
S      -43.67590000     -32.91170000     -73.93860000
C      -47.05490000     -33.61820000     -70.31420000
H      -47.12970000     -34.04840000     -69.25190000
H      -46.72980000     -34.48640000     -70.87920000
C      -43.45260000     -34.63970000     -73.30730000
H      -42.44590000     -34.73770000     -72.93170000
H      -43.57090000     -35.41090000     -74.10030000
C      -44.42580000     -35.05730000     -72.18890000
H      -45.30610000     -34.41180000     -72.22940000
H      -44.71380000     -36.08110000     -72.44720000
C      -45.99150000     -32.52900000     -70.35330000
H      -46.39910000     -31.53880000     -70.08540000
H      -45.63750000     -32.32300000     -71.38750000
C      -44.85700000     -32.95490000     -69.39370000
C      -44.56780000     -32.31300000     -68.22810000
C      -44.06930000     -34.09210000     -69.67350000
H      -44.78220000     -31.35000000     -67.83720000
C      -43.25350000     -34.39880000     -68.58410000
C      -43.82140000     -35.06590000     -70.74280000
C      -42.92930000     -36.06980000     -70.48570000
S      -43.32000000     -33.20070000     -67.29390000
S      -42.45920000     -35.99580000     -68.74150000
H      -42.56910000     -36.87890000     -71.14700000
