40
Properties=species:S:1:pos:R:3 #=T CELL(abcABC):=T 1.889726e+02=T 90.00000=T Traj:=T positionsangstrom=T Step:=T 0=T Bead:=T pbc="F F F"
C      -45.08500000     -35.96940000     -72.40620000
C      -46.16370000     -36.15600000     -71.59840000
C      -46.14350000     -35.79380000     -70.21270000
C      -44.87690000     -35.37780000     -69.71710000
C      -43.73240000     -35.28280000     -70.55180000
C      -43.85880000     -35.37810000     -71.91900000
H      -45.22100000     -36.12870000     -73.47930000
H      -46.98810000     -35.74830000     -69.52970000
H      -42.87640000     -34.86210000     -70.06560000
H      -43.04560000     -35.31330000     -72.61070000
C      -44.65030000     -35.04420000     -68.18000000
H      -43.83000000     -35.68420000     -67.81510000
H      -45.58080000     -35.12050000     -67.66280000
C      -47.45670000     -36.81290000     -72.10240000
H      -47.25500000     -37.28970000     -73.09360000
H      -47.91830000     -37.36490000     -71.28960000
S      -43.91520000     -33.41990000     -67.67860000
S      -48.74410000     -35.52630000     -72.48330000
C      -45.22990000     -32.12450000     -67.95360000
H      -46.01540000     -32.20950000     -67.22500000
H      -44.82120000     -31.08510000     -67.74120000
C      -47.84190000     -34.06950000     -73.11710000
H      -48.50950000     -33.55270000     -73.82040000
H      -46.97760000     -34.41510000     -73.58190000
C      -47.34250000     -33.02720000     -72.09980000
H      -48.27680000     -32.49310000     -71.86450000
H      -47.19810000     -33.54440000     -71.14070000
C      -45.77570000     -32.15630000     -69.42150000
H      -46.79200000     -31.67650000     -69.48330000
H      -45.95940000     -33.20800000     -69.59950000
C      -44.83160000     -31.59950000     -70.46720000
C      -43.53090000     -31.18860000     -70.25340000
C      -45.05480000     -31.67780000     -71.89190000
H      -43.06410000     -31.14210000     -69.29780000
C      -44.05100000     -31.20040000     -72.72540000
C      -46.21110000     -32.15310000     -72.62340000
C      -46.10020000     -31.94550000     -73.98220000
S      -42.64380000     -30.80130000     -71.74630000
S      -44.65570000     -31.12090000     -74.39210000
H      -46.89890000     -32.05920000     -74.66270000
