40
Properties=species:S:1:pos:R:3 #=T CELL(abcABC):=T 1.889726e+02=T 90.00000=T Traj:=T positionsangstrom=T Step:=T 0=T Bead:=T pbc="F F F"
C      -46.64000000     -31.02360000     -74.67260000
C      -46.28340000     -32.33610000     -74.32040000
C      -47.13820000     -33.15940000     -73.55900000
C      -48.31490000     -32.59200000     -72.98320000
C      -48.71490000     -31.23310000     -73.26490000
C      -47.83770000     -30.50840000     -74.10950000
H      -45.97730000     -30.45990000     -75.35360000
H      -46.90890000     -34.24080000     -73.45490000
H      -49.54800000     -30.70060000     -72.86740000
H      -48.10470000     -29.50810000     -74.36730000
C      -49.23930000     -33.46310000     -72.05860000
H      -48.95190000     -34.47070000     -72.04580000
H      -50.30830000     -33.39090000     -72.20710000
C      -45.04030000     -32.88260000     -74.95080000
H      -45.11000000     -33.92630000     -75.07840000
H      -44.76170000     -32.30370000     -75.82710000
S      -48.93490000     -32.89090000     -70.32790000
S      -43.61120000     -32.67170000     -73.72050000
C      -47.14940000     -33.50690000     -70.02100000
H      -47.05060000     -33.68390000     -68.92850000
H      -47.11600000     -34.51000000     -70.55620000
C      -43.31330000     -34.43010000     -73.24900000
H      -42.34300000     -34.50450000     -72.73810000
H      -43.28730000     -35.10070000     -74.14520000
C      -44.36220000     -35.06410000     -72.30710000
H      -45.38180000     -34.61060000     -72.33860000
H      -44.50000000     -36.09740000     -72.66220000
C      -45.99230000     -32.56150000     -70.44760000
H      -46.26250000     -31.52460000     -70.25550000
H      -45.65680000     -32.79450000     -71.50610000
C      -44.79800000     -33.01110000     -69.58530000
C      -44.49870000     -32.35650000     -68.38800000
C      -44.06310000     -34.21140000     -69.80970000
H      -45.01030000     -31.57050000     -67.78840000
C      -43.19870000     -34.41000000     -68.74930000
C      -43.83430000     -35.10750000     -70.89920000
C      -42.94790000     -36.13430000     -70.59750000
S      -43.12350000     -33.17450000     -67.57680000
S      -42.19740000     -35.88220000     -68.97650000
H      -42.79600000     -37.01140000     -71.21120000
