40
Properties=species:S:1:pos:R:3 #=T CELL(abcABC):=T 1.889726e+02=T 90.00000=T Traj:=T positionsangstrom=T Step:=T 0=T Bead:=T pbc="F F F"
C      -47.90760000     -34.45560000     -72.40240000
C      -47.50920000     -35.54350000     -71.58960000
C      -47.57990000     -35.43230000     -70.20180000
C      -47.89680000     -34.26600000     -69.60760000
C      -48.22520000     -33.10250000     -70.36940000
C      -48.24180000     -33.24300000     -71.79570000
H      -48.05030000     -34.63780000     -73.46650000
H      -47.32980000     -36.26780000     -69.50130000
H      -48.45290000     -32.14530000     -69.89320000
H      -48.54000000     -32.35180000     -72.28460000
C      -47.84840000     -34.08900000     -68.10210000
H      -48.42080000     -34.89330000     -67.57360000
H      -48.31530000     -33.05810000     -68.07730000
C      -46.94140000     -36.82210000     -72.16440000
H      -47.48390000     -37.69520000     -71.69590000
H      -47.09530000     -36.90190000     -73.28010000
S      -46.19390000     -33.78030000     -67.33820000
S      -45.09690000     -37.02430000     -71.93890000
C      -45.52270000     -32.55420000     -68.51470000
H      -46.31520000     -31.86260000     -68.79070000
H      -44.87590000     -31.83760000     -67.95140000
C      -44.64500000     -35.45890000     -72.75830000
H      -45.36140000     -34.65950000     -72.36040000
H      -44.68550000     -35.48420000     -73.86440000
C      -43.27710000     -34.78880000     -72.39000000
H      -43.12390000     -34.71230000     -71.31940000
H      -42.43900000     -35.35510000     -72.76730000
C      -44.73230000     -33.06030000     -69.74990000
H      -45.20460000     -33.93590000     -70.28720000
H      -43.82040000     -33.43100000     -69.34130000
C      -44.48950000     -31.98700000     -70.78610000
C      -44.68250000     -30.63820000     -70.61510000
C      -43.80890000     -32.17200000     -72.09900000
H      -45.36990000     -30.23580000     -69.81340000
C      -43.52360000     -30.97240000     -72.81660000
C      -43.26700000     -33.31650000     -72.88470000
C      -42.61810000     -32.96410000     -74.04210000
S      -44.20730000     -29.60100000     -71.96470000
S      -42.68060000     -31.24150000     -74.34010000
H      -42.01860000     -33.58160000     -74.69560000
