40
Properties=species:S:1:pos:R:3 #=T CELL(abcABC):=T 1.889726e+02=T 90.00000=T Traj:=T positionsangstrom=T Step:=T 0=T Bead:=T pbc="F F F"
C      -48.34020000     -34.93050000     -73.42450000
C      -48.17330000     -33.52250000     -73.49070000
C      -48.50000000     -32.83430000     -72.33020000
C      -48.74000000     -33.49430000     -71.08700000
C      -48.82380000     -34.88350000     -71.05050000
C      -48.74490000     -35.57870000     -72.29980000
H      -48.06650000     -35.44610000     -74.30040000
H      -48.36520000     -31.78660000     -72.49650000
H      -49.13700000     -35.43600000     -70.19430000
H      -49.17500000     -36.54900000     -72.45870000
C      -48.98250000     -32.65270000     -69.84090000
H      -50.01480000     -32.92170000     -69.41530000
H      -49.00250000     -31.61340000     -70.10160000
C      -47.69650000     -32.78380000     -74.69630000
H      -47.34740000     -33.57060000     -75.41390000
H      -48.55400000     -32.28540000     -75.13010000
S      -47.70180000     -32.95150000     -68.56230000
S      -46.16070000     -31.73240000     -74.49260000
C      -46.10770000     -32.78050000     -69.35280000
H      -46.07620000     -31.92580000     -70.00630000
H      -45.44100000     -32.56580000     -68.47990000
C      -44.98220000     -32.83540000     -73.53570000
H      -44.11200000     -33.09810000     -74.15370000
H      -45.52260000     -33.79090000     -73.24220000
C      -44.50020000     -32.00760000     -72.38380000
H      -44.21940000     -30.97880000     -72.62180000
H      -45.23140000     -31.92170000     -71.56650000
C      -45.56210000     -34.08050000     -70.07010000
H      -45.80660000     -33.99110000     -71.15630000
H      -46.04950000     -35.01430000     -69.71430000
C      -44.10360000     -34.20930000     -69.93500000
C      -43.57730000     -34.92400000     -68.89480000
C      -43.13610000     -33.54290000     -70.81880000
H      -44.02890000     -35.54300000     -68.15290000
C      -41.84410000     -33.80690000     -70.33730000
C      -43.17710000     -32.54930000     -71.86380000
C      -41.91030000     -32.20110000     -72.26240000
S      -41.79970000     -35.01350000     -69.01170000
S      -40.60510000     -32.82960000     -71.26020000
H      -41.69520000     -31.49150000     -73.08460000
