40
Properties=species:S:1:pos:R:3 #=T CELL(abcABC):=T 1.889726e+02=T 90.00000=T Traj:=T positionsangstrom=T Step:=T 0=T Bead:=T pbc="F F F"
C      -46.98180000     -30.54350000     -74.03400000
C      -46.49920000     -31.87310000     -74.09990000
C      -47.34420000     -32.90100000     -73.56810000
C      -48.51780000     -32.58640000     -72.80600000
C      -48.89880000     -31.27330000     -72.73430000
C      -48.15610000     -30.23600000     -73.34640000
H      -46.38090000     -29.78870000     -74.61900000
H      -47.09570000     -33.89270000     -73.62650000
H      -49.76270000     -30.94990000     -72.17130000
H      -48.53150000     -29.20860000     -73.33670000
C      -49.26480000     -33.57870000     -72.05040000
H      -48.97130000     -34.69770000     -72.21110000
H      -50.36100000     -33.55710000     -72.10350000
C      -45.35580000     -32.13370000     -75.07250000
H      -45.56180000     -32.94470000     -75.75940000
H      -44.99170000     -31.10460000     -75.46830000
S      -49.06160000     -33.50440000     -70.20760000
S      -43.78520000     -32.76760000     -74.10890000
C      -47.34280000     -33.85180000     -69.64510000
H      -47.50480000     -34.18520000     -68.64620000
H      -47.08290000     -34.70260000     -70.20310000
C      -44.15730000     -34.61410000     -73.70400000
H      -43.27530000     -35.18900000     -73.88940000
H      -44.82770000     -34.94410000     -74.51610000
C      -44.65610000     -34.78250000     -72.25060000
H      -45.47590000     -34.06990000     -72.12780000
H      -45.09280000     -35.78120000     -72.25320000
C      -46.17070000     -32.81240000     -69.74010000
H      -46.31540000     -31.93150000     -69.14150000
H      -45.99210000     -32.45510000     -70.73710000
C      -44.79860000     -33.34440000     -69.17860000
C      -44.39360000     -33.02780000     -67.89120000
C      -43.80690000     -34.21720000     -69.83090000
H      -44.91420000     -32.32420000     -67.24550000
C      -42.69060000     -34.45440000     -69.00300000
C      -43.61730000     -34.82790000     -71.13480000
C      -42.42460000     -35.44890000     -71.34830000
S      -42.86180000     -33.77510000     -67.43560000
S      -41.36080000     -35.22400000     -69.89350000
H      -41.93340000     -35.63710000     -72.26570000
