40
Properties=species:S:1:pos:R:3 #=T CELL(abcABC):=T 1.889726e+02=T 90.00000=T Traj:=T positionsangstrom=T Step:=T 0=T Bead:=T pbc="F F F"
C      -48.24400000     -35.18450000     -73.57930000
C      -48.08280000     -33.76480000     -73.57320000
C      -48.29970000     -33.08790000     -72.38540000
C      -48.97590000     -33.68010000     -71.31450000
C      -49.23490000     -35.03720000     -71.31540000
C      -48.85440000     -35.77630000     -72.43010000
H      -48.03150000     -35.76580000     -74.51770000
H      -48.08010000     -32.05470000     -72.15880000
H      -49.73010000     -35.56680000     -70.43320000
H      -49.06910000     -36.81700000     -72.32510000
C      -49.19870000     -32.81770000     -70.09400000
H      -50.08560000     -33.14190000     -69.59790000
H      -49.32720000     -31.76230000     -70.48050000
C      -47.40730000     -33.09330000     -74.77550000
H      -46.97670000     -33.81120000     -75.44740000
H      -48.07900000     -32.45660000     -75.41360000
S      -47.95660000     -32.99500000     -68.79820000
S      -46.08980000     -31.76900000     -74.39780000
C      -46.32370000     -32.79400000     -69.71110000
H      -46.77760000     -32.42090000     -70.63830000
H      -45.63950000     -32.14060000     -69.14650000
C      -44.93730000     -32.63600000     -73.19140000
H      -44.04820000     -33.07740000     -73.72330000
H      -45.55840000     -33.45090000     -72.82080000
C      -44.38360000     -31.66520000     -72.08620000
H      -44.14940000     -30.69350000     -72.54460000
H      -45.09370000     -31.58450000     -71.19700000
C      -45.53690000     -34.13440000     -69.83540000
H      -45.93460000     -34.76000000     -70.71680000
H      -45.86120000     -34.71480000     -68.90600000
C      -44.05860000     -34.12030000     -69.83840000
C      -43.40080000     -34.99840000     -69.02250000
C      -43.12710000     -33.27020000     -70.53080000
H      -43.88980000     -35.64270000     -68.33680000
C      -41.79130000     -33.60370000     -70.27180000
C      -43.11530000     -32.20230000     -71.56100000
C      -41.81350000     -31.75340000     -71.90450000
S      -41.71340000     -35.01830000     -69.18790000
S      -40.55210000     -32.71700000     -71.06340000
H      -41.47590000     -30.92830000     -72.47410000
