40
Properties=species:S:1:pos:R:3 #=T CELL(abcABC):=T 1.889726e+02=T 90.00000=T Traj:=T positionsangstrom=T Step:=T 0=T Bead:=T pbc="F F F"
C      -48.02340000     -35.05840000     -73.65980000
C      -47.63660000     -33.72430000     -73.60360000
C      -48.04590000     -32.95920000     -72.55050000
C      -48.67420000     -33.48160000     -71.42410000
C      -48.93370000     -34.93720000     -71.37810000
C      -48.67880000     -35.64400000     -72.57690000
H      -47.79440000     -35.68710000     -74.53200000
H      -47.70980000     -31.96090000     -72.62120000
H      -49.34620000     -35.24580000     -70.47060000
H      -48.98040000     -36.69770000     -72.66950000
C      -48.98350000     -32.57890000     -70.24780000
H      -50.04920000     -32.64210000     -70.06340000
H      -48.61660000     -31.57160000     -70.46430000
C      -47.01690000     -33.15180000     -74.83810000
H      -46.48810000     -33.86880000     -75.44390000
H      -47.84300000     -32.89220000     -75.52790000
S      -48.13370000     -33.31520000     -68.79040000
S      -45.89680000     -31.74270000     -74.51100000
C      -46.40540000     -33.05940000     -69.05490000
H      -46.04700000     -32.04200000     -69.30780000
H      -46.03090000     -33.32790000     -68.06660000
C      -44.49770000     -32.55480000     -73.59270000
H      -43.60000000     -32.45820000     -74.21070000
H      -44.71840000     -33.53110000     -73.41530000
C      -44.38880000     -31.79690000     -72.29440000
H      -44.36840000     -30.77490000     -72.58170000
H      -45.32090000     -31.89470000     -71.65280000
C      -45.83470000     -33.98790000     -70.13310000
H      -46.12370000     -33.56770000     -71.06340000
H      -46.23340000     -35.00990000     -69.89820000
C      -44.31180000     -34.06710000     -69.96470000
C      -43.81810000     -35.04100000     -69.12700000
C      -43.24200000     -33.32940000     -70.62100000
H      -44.36710000     -35.78130000     -68.61150000
C      -42.02730000     -33.75580000     -70.18540000
C      -43.15450000     -32.23930000     -71.54630000
C      -41.87850000     -31.75000000     -71.67670000
S      -42.07570000     -35.02680000     -69.05400000
S      -40.75100000     -32.63320000     -70.63600000
H      -41.52450000     -30.87110000     -72.21400000
