40
Properties=species:S:1:pos:R:3 #=T CELL(abcABC):=T 1.889726e+02=T 90.00000=T Traj:=T positionsangstrom=T Step:=T 0=T Bead:=T pbc="F F F"
C      -46.47300000     -34.97150000     -74.03690000
C      -46.87610000     -33.60450000     -74.11290000
C      -47.72700000     -33.12070000     -73.10910000
C      -48.39140000     -34.00850000     -72.25400000
C      -48.08310000     -35.37150000     -72.26720000
C      -47.09340000     -35.80520000     -73.10910000
H      -45.87480000     -35.35650000     -74.86780000
H      -48.07790000     -32.06590000     -73.12030000
H      -48.64480000     -36.12210000     -71.67100000
H      -46.96010000     -36.82120000     -73.29570000
C      -49.44150000     -33.47320000     -71.29840000
H      -50.34480000     -34.08750000     -71.30850000
H      -49.77630000     -32.55430000     -71.80660000
C      -46.37920000     -32.77700000     -75.30470000
H      -45.71920000     -33.43910000     -75.90830000
H      -47.12130000     -32.47350000     -75.95930000
S      -48.79820000     -33.35010000     -69.57000000
S      -45.52200000     -31.23770000     -74.70220000
C      -46.96380000     -33.01060000     -69.65870000
H      -46.74760000     -32.18120000     -70.35070000
H      -46.67050000     -32.56930000     -68.71510000
C      -44.16390000     -32.13080000     -73.73430000
H      -43.24560000     -31.59250000     -73.77170000
H      -43.94720000     -33.00070000     -74.28330000
C      -44.42490000     -32.42300000     -72.30010000
H      -44.86810000     -31.58750000     -71.72210000
H      -45.20330000     -33.16580000     -72.17230000
C      -46.08960000     -34.27510000     -69.93920000
H      -46.15300000     -34.42330000     -71.07770000
H      -46.63150000     -35.17630000     -69.54280000
C      -44.68450000     -34.14080000     -69.39850000
C      -44.39150000     -34.61800000     -68.17220000
C      -43.55780000     -33.40450000     -70.02020000
H      -45.10050000     -35.18550000     -67.52430000
C      -42.48350000     -33.46760000     -69.19810000
C      -43.30030000     -32.78640000     -71.32220000
C      -41.98330000     -32.33970000     -71.36270000
S      -42.74390000     -34.22650000     -67.71400000
S      -41.01230000     -32.80600000     -70.00490000
H      -41.56030000     -31.82020000     -72.23720000
