40
Properties=species:S:1:pos:R:3 #=T CELL(abcABC):=T 1.889726e+02=T 90.00000=T Traj:=T positionsangstrom=T Step:=T 0=T Bead:=T pbc="F F F"
C      -47.25940000     -35.12190000     -74.27750000
C      -47.10550000     -33.74940000     -74.05420000
C      -47.67080000     -33.12300000     -72.90180000
C      -48.59780000     -33.77660000     -72.07440000
C      -48.71690000     -35.15320000     -72.28710000
C      -48.10280000     -35.83580000     -73.37140000
H      -46.82300000     -35.56820000     -75.17500000
H      -47.54740000     -31.99230000     -72.72240000
H      -49.50360000     -35.55460000     -71.70780000
H      -48.39310000     -36.82740000     -73.52190000
C      -49.16820000     -33.11410000     -70.81350000
H      -50.28120000     -33.14070000     -70.77220000
H      -48.79820000     -32.15080000     -70.87680000
C      -46.54040000     -32.80030000     -75.14490000
H      -46.13290000     -33.34360000     -76.00210000
H      -47.34950000     -32.24200000     -75.64050000
S      -48.58400000     -33.83600000     -69.24720000
S      -45.61210000     -31.25070000     -74.68130000
C      -46.86430000     -33.28940000     -69.23940000
H      -46.75740000     -32.38860000     -69.84160000
H      -46.59590000     -32.97510000     -68.24440000
C      -44.28810000     -31.47590000     -73.37290000
H      -44.32460000     -30.61520000     -72.69060000
H      -43.32240000     -31.32110000     -73.84420000
C      -44.44270000     -32.83430000     -72.60290000
H      -45.43530000     -32.80550000     -72.09240000
H      -44.47430000     -33.70990000     -73.32580000
C      -45.83740000     -34.42460000     -69.70780000
H      -45.96410000     -34.60990000     -70.79510000
H      -46.07850000     -35.37490000     -69.17230000
C      -44.41280000     -34.11630000     -69.40760000
C      -43.99750000     -34.46300000     -68.20950000
C      -43.41830000     -33.44290000     -70.20980000
H      -44.60350000     -34.87750000     -67.40560000
C      -42.26340000     -33.35390000     -69.44790000
C      -43.31400000     -32.97340000     -71.55240000
C      -42.03160000     -32.44370000     -71.74460000
S      -42.35860000     -34.00280000     -67.84370000
S      -40.91230000     -32.68400000     -70.37640000
H      -41.48840000     -32.07350000     -72.62960000
