40
Properties=species:S:1:pos:R:3 #=T CELL(abcABC):=T 1.889726e+02=T 90.00000=T Traj:=T positionsangstrom=T Step:=T 0=T Bead:=T pbc="F F F"
C      -48.23390000     -34.80180000     -73.73650000
C      -47.20860000     -33.94890000     -74.08000000
C      -45.88230000     -34.34400000     -74.16280000
C      -45.54220000     -35.67700000     -73.87350000
C      -46.53820000     -36.61960000     -73.61870000
C      -47.84210000     -36.16220000     -73.53810000
H      -49.31230000     -34.60260000     -73.60940000
H      -45.11150000     -33.53500000     -74.13600000
H      -46.15360000     -37.56730000     -73.23050000
H      -48.50940000     -36.96020000     -73.14390000
C      -44.03540000     -36.01800000     -74.00890000
H      -43.48900000     -35.15870000     -74.25730000
H      -43.83480000     -36.75130000     -74.67220000
C      -47.63450000     -32.54120000     -74.52800000
H      -46.79780000     -32.07650000     -75.04460000
H      -48.49440000     -32.53620000     -75.14470000
S      -43.34420000     -36.87490000     -72.54130000
S      -48.21010000     -31.51050000     -72.98590000
C      -43.07860000     -35.45570000     -71.27250000
H      -42.75460000     -35.93300000     -70.35240000
H      -42.25120000     -34.81550000     -71.70570000
C      -46.71990000     -31.51040000     -71.88470000
H      -46.60190000     -30.45700000     -71.59560000
H      -45.90950000     -31.78890000     -72.58600000
C      -46.96530000     -32.42100000     -70.62680000
H      -48.07610000     -32.24540000     -70.41300000
H      -46.84690000     -33.46040000     -70.97600000
C      -44.26630000     -34.46640000     -71.01090000
H      -45.15520000     -34.95590000     -70.65930000
H      -44.60150000     -33.87170000     -71.93870000
C      -43.77570000     -33.29610000     -70.06390000
C      -42.46620000     -33.23710000     -69.58420000
C      -44.63430000     -32.24710000     -69.49770000
H      -41.63130000     -33.70840000     -69.97340000
C      -43.98170000     -31.46110000     -68.48730000
C      -46.07200000     -31.96150000     -69.49650000
C      -46.41190000     -31.01320000     -68.56060000
S      -42.25590000     -31.94110000     -68.37110000
S      -45.02830000     -30.51310000     -67.48670000
H      -47.39900000     -30.71600000     -68.10140000
