40
Properties=species:S:1:pos:R:3 #=T CELL(abcABC):=T 1.889726e+02=T 90.00000=T Traj:=T positionsangstrom=T Step:=T 0=T Bead:=T pbc="F F F"
C      -47.16440000     -35.04710000     -74.47090000
C      -47.05090000     -33.66410000     -74.16350000
C      -47.86980000     -33.09810000     -73.14080000
C      -48.56320000     -33.88860000     -72.23050000
C      -48.55340000     -35.29200000     -72.41380000
C      -47.77420000     -35.81340000     -73.52490000
H      -46.52710000     -35.42860000     -75.17780000
H      -47.78270000     -32.03160000     -72.94590000
H      -48.92200000     -35.84720000     -71.56410000
H      -47.75080000     -36.90560000     -73.59080000
C      -49.25160000     -33.17600000     -71.12520000
H      -50.26790000     -33.47190000     -70.90760000
H      -49.31980000     -32.03610000     -71.29730000
C      -46.05090000     -32.88020000     -75.06560000
H      -45.06460000     -33.47580000     -74.98100000
H      -46.41020000     -32.94320000     -76.08240000
S      -48.64220000     -33.59830000     -69.35230000
S      -45.73720000     -31.22200000     -74.50130000
C      -46.77550000     -33.25060000     -69.30590000
H      -46.51310000     -32.41160000     -69.98140000
H      -46.63670000     -32.97960000     -68.25160000
C      -44.36910000     -31.60770000     -73.37380000
H      -44.09980000     -30.63240000     -73.04290000
H      -43.66160000     -32.15790000     -73.99140000
C      -44.70340000     -32.66940000     -72.25860000
H      -45.51220000     -32.35790000     -71.61530000
H      -45.00020000     -33.56240000     -72.75360000
C      -45.83450000     -34.47120000     -69.68900000
H      -45.93550000     -34.74950000     -70.75930000
H      -46.13060000     -35.30610000     -69.12040000
C      -44.47660000     -34.09680000     -69.20220000
C      -43.96580000     -34.53200000     -68.05360000
C      -43.45120000     -33.49130000     -70.07730000
H      -44.35380000     -35.16630000     -67.24100000
C      -42.20810000     -33.44380000     -69.42490000
C      -43.47570000     -32.88190000     -71.38890000
C      -42.18860000     -32.44170000     -71.72070000
S      -42.27150000     -34.09960000     -67.82240000
S      -40.99540000     -32.69720000     -70.40760000
H      -41.91360000     -32.05440000     -72.71200000
