40
Properties=species:S:1:pos:R:3 #=T CELL(abcABC):=T 1.889726e+02=T 90.00000=T Traj:=T positionsangstrom=T Step:=T 0=T Bead:=T pbc="F F F"
C      -46.39020000     -35.02780000     -74.00330000
C      -46.87780000     -33.70150000     -74.20800000
C      -47.96830000     -33.31360000     -73.41630000
C      -48.40220000     -34.07640000     -72.35090000
C      -47.94890000     -35.38330000     -72.20440000
C      -46.97290000     -35.85220000     -73.05560000
H      -45.53560000     -35.46000000     -74.40870000
H      -48.19900000     -32.24630000     -73.50490000
H      -48.37750000     -35.98760000     -71.42260000
H      -46.40940000     -36.75670000     -72.78770000
C      -49.46080000     -33.40300000     -71.34630000
H      -50.38070000     -33.95930000     -71.37260000
H      -49.48590000     -32.32920000     -71.71990000
C      -46.26220000     -32.78050000     -75.22980000
H      -45.63440000     -33.25410000     -75.99980000
H      -47.11360000     -32.35160000     -75.81440000
S      -48.83800000     -33.41070000     -69.63770000
S      -45.36520000     -31.31750000     -74.59830000
C      -47.02490000     -32.98080000     -69.68650000
H      -46.86800000     -32.23990000     -70.45550000
H      -46.92990000     -32.55250000     -68.68420000
C      -43.96330000     -31.91340000     -73.54240000
H      -43.41770000     -30.98710000     -73.37030000
H      -43.27190000     -32.61950000     -74.14930000
C      -44.47100000     -32.63880000     -72.33610000
H      -45.24760000     -31.99900000     -71.87960000
H      -44.88610000     -33.63120000     -72.55650000
C      -46.14060000     -34.24440000     -69.92630000
H      -45.95300000     -34.40480000     -70.98460000
H      -46.52770000     -35.10160000     -69.48290000
C      -44.75970000     -34.05460000     -69.32050000
C      -44.40350000     -34.45420000     -68.08550000
C      -43.61900000     -33.43260000     -70.04990000
H      -45.11170000     -35.05250000     -67.40260000
C      -42.48290000     -33.49060000     -69.27590000
C      -43.37270000     -32.81530000     -71.28180000
C      -42.07940000     -32.37320000     -71.43680000
S      -42.71530000     -34.20930000     -67.74960000
S      -41.17530000     -32.63020000     -69.97850000
H      -41.64510000     -31.88430000     -72.32270000
