40
Properties=species:S:1:pos:R:3 #=T CELL(abcABC):=T 1.889726e+02=T 90.00000=T Traj:=T positionsangstrom=T Step:=T 0=T Bead:=T pbc="F F F"
C      -46.51100000     -35.56860000     -74.12630000
C      -46.59880000     -34.19280000     -74.31470000
C      -47.43800000     -33.42320000     -73.50930000
C      -48.35920000     -34.03890000     -72.62660000
C      -48.27470000     -35.41830000     -72.48510000
C      -47.38980000     -36.16900000     -73.25580000
H      -45.70950000     -36.16970000     -74.62730000
H      -47.42380000     -32.34700000     -73.49050000
H      -48.85100000     -35.93570000     -71.73030000
H      -47.33320000     -37.23810000     -73.14020000
C      -49.16290000     -33.10700000     -71.83590000
H      -50.25760000     -33.31510000     -71.98920000
H      -48.78760000     -32.08470000     -72.14500000
C      -45.62410000     -33.54730000     -75.23000000
H      -44.70300000     -34.04790000     -75.51590000
H      -46.16440000     -33.40040000     -76.17180000
S      -48.98050000     -33.37860000     -70.02420000
S      -45.01970000     -31.85110000     -74.84990000
C      -47.17420000     -33.09160000     -69.64010000
H      -46.89710000     -32.09020000     -69.93910000
H      -47.14330000     -32.98410000     -68.56580000
C      -43.71100000     -32.03660000     -73.57380000
H      -43.11290000     -31.07050000     -73.53490000
H      -43.07760000     -32.85520000     -73.95530000
C      -44.34250000     -32.42720000     -72.22750000
H      -44.98860000     -31.61030000     -71.97190000
H      -44.97550000     -33.23430000     -72.45310000
C      -46.13650000     -34.23380000     -70.04140000
H      -46.19350000     -34.24840000     -71.16790000
H      -46.38270000     -35.23470000     -69.73410000
C      -44.81500000     -33.93030000     -69.31850000
C      -44.63630000     -34.37580000     -68.03050000
C      -43.72450000     -33.20060000     -69.83470000
H      -45.46560000     -34.72330000     -67.36480000
C      -42.69870000     -33.12310000     -68.90300000
C      -43.39630000     -32.52380000     -71.08150000
C      -42.12590000     -32.01810000     -71.05590000
S      -43.08790000     -33.84430000     -67.39310000
S      -41.24180000     -32.27330000     -69.53980000
H      -41.74620000     -31.40700000     -71.83710000
