40
Properties=species:S:1:pos:R:3 #=T CELL(abcABC):=T 1.889726e+02=T 90.00000=T Traj:=T positionsangstrom=T Step:=T 0=T Bead:=T pbc="F F F"
C      -46.44450000     -35.56900000     -74.09030000
C      -46.51970000     -34.16050000     -74.25420000
C      -47.44190000     -33.40380000     -73.54620000
C      -48.32800000     -34.02710000     -72.65990000
C      -48.27340000     -35.46480000     -72.60040000
C      -47.34960000     -36.23580000     -73.29980000
H      -45.71990000     -36.16680000     -74.65250000
H      -47.45240000     -32.32730000     -73.66630000
H      -49.03270000     -35.96250000     -72.08040000
H      -47.28710000     -37.32000000     -73.08440000
C      -49.28580000     -33.23270000     -71.79890000
H      -50.35300000     -33.48620000     -71.90050000
H      -49.26140000     -32.24500000     -72.02210000
C      -45.56080000     -33.48210000     -75.24710000
H      -44.57420000     -34.01670000     -75.24480000
H      -45.97510000     -33.63420000     -76.30690000
S      -49.00340000     -33.53730000     -69.96390000
S      -45.08300000     -31.74640000     -74.86210000
C      -47.29050000     -32.92780000     -69.65450000
H      -47.09250000     -32.04430000     -70.28520000
H      -47.32790000     -32.67910000     -68.60800000
C      -43.80400000     -31.80470000     -73.55710000
H      -43.28080000     -30.81880000     -73.51750000
H      -43.06050000     -32.44370000     -73.83630000
C      -44.40000000     -32.23740000     -72.20700000
H      -45.12500000     -31.39460000     -71.89560000
H      -45.05890000     -33.12890000     -72.25640000
C      -46.21850000     -34.02040000     -69.95360000
H      -46.09520000     -34.08670000     -71.02000000
H      -46.73000000     -34.93300000     -69.64680000
C      -44.88280000     -33.76590000     -69.22270000
C      -44.65240000     -34.26830000     -67.98050000
C      -43.73550000     -33.15410000     -69.82130000
H      -45.28660000     -34.72720000     -67.24820000
C      -42.64380000     -33.21140000     -68.98340000
C      -43.36170000     -32.45480000     -71.05530000
C      -42.06850000     -32.10180000     -71.06350000
S      -43.01090000     -33.92440000     -67.47210000
S      -41.14590000     -32.50980000     -69.55090000
H      -41.56110000     -31.56030000     -71.85270000
