40
Properties=species:S:1:pos:R:3 #=T CELL(abcABC):=T 1.889726e+02=T 90.00000=T Traj:=T positionsangstrom=T Step:=T 0=T Bead:=T pbc="F F F"
C      -46.41730000     -35.46780000     -74.25520000
C      -46.45270000     -34.07340000     -74.22110000
C      -47.34020000     -33.43750000     -73.37110000
C      -48.25820000     -34.14550000     -72.59420000
C      -48.27640000     -35.55380000     -72.68350000
C      -47.28580000     -36.18980000     -73.45180000
H      -45.61710000     -36.00720000     -74.71920000
H      -47.45110000     -32.33470000     -73.25070000
H      -48.91650000     -36.22600000     -72.06470000
H      -47.37000000     -37.25680000     -73.52150000
C      -49.27380000     -33.41170000     -71.75200000
H      -50.20740000     -33.86350000     -71.82260000
H      -49.24790000     -32.35320000     -72.06560000
C      -45.53450000     -33.31170000     -75.11460000
H      -44.56690000     -33.85630000     -75.29450000
H      -45.89140000     -33.36370000     -76.15310000
S      -49.03580000     -33.42040000     -69.98280000
S      -45.20550000     -31.56000000     -74.88640000
C      -47.27160000     -32.93130000     -69.61620000
H      -47.04580000     -32.01310000     -70.12590000
H      -47.26610000     -32.76100000     -68.51840000
C      -44.05410000     -31.48820000     -73.43900000
H      -43.85100000     -30.48190000     -73.29170000
H      -43.10100000     -31.95360000     -73.70800000
C      -44.55830000     -32.12130000     -72.08490000
H      -45.27920000     -31.38940000     -71.69520000
H      -45.16920000     -32.99630000     -72.31520000
C      -46.24930000     -34.06450000     -69.70130000
H      -46.04170000     -34.44660000     -70.71840000
H      -46.82350000     -34.87270000     -69.21190000
C      -44.90020000     -33.75780000     -69.02970000
C      -44.58880000     -34.18220000     -67.78070000
C      -43.75620000     -33.19100000     -69.73990000
H      -45.14500000     -34.70870000     -67.11840000
C      -42.49300000     -33.33530000     -69.05030000
C      -43.50880000     -32.53110000     -71.01540000
C      -42.19550000     -32.20820000     -71.17160000
S      -42.84270000     -34.02940000     -67.47240000
S      -41.08860000     -32.76910000     -69.90400000
H      -41.70750000     -31.57940000     -71.91660000
