40
Properties=species:S:1:pos:R:3 #=T CELL(abcABC):=T 1.889726e+02=T 90.00000=T Traj:=T positionsangstrom=T Step:=T 0=T Bead:=T pbc="F F F"
C      -46.36660000     -35.11880000     -74.07880000
C      -46.77930000     -33.79390000     -74.28070000
C      -47.73440000     -33.20390000     -73.40960000
C      -48.36950000     -33.98550000     -72.43970000
C      -47.95480000     -35.29660000     -72.26570000
C      -46.99290000     -35.91200000     -73.10360000
H      -45.71830000     -35.68270000     -74.74040000
H      -48.06530000     -32.19740000     -73.42400000
H      -48.33270000     -36.01450000     -71.59460000
H      -46.67290000     -36.98030000     -73.15320000
C      -49.43760000     -33.49170000     -71.52060000
H      -50.35730000     -34.06230000     -71.50890000
H      -49.87450000     -32.50710000     -71.66730000
C      -46.12070000     -32.96660000     -75.33950000
H      -45.28060000     -33.50240000     -75.68020000
H      -46.88140000     -32.73610000     -76.12810000
S      -48.92930000     -33.40420000     -69.67550000
S      -45.44840000     -31.36870000     -74.75640000
C      -47.10540000     -32.98310000     -69.60460000
H      -46.83230000     -32.15070000     -70.27240000
H      -46.82840000     -32.70440000     -68.57550000
C      -44.08590000     -31.57730000     -73.49340000
H      -43.95130000     -30.57000000     -73.13700000
H      -43.24600000     -31.85900000     -74.05980000
C      -44.35370000     -32.64410000     -72.36640000
H      -45.34090000     -32.42520000     -71.95070000
H      -44.49190000     -33.58950000     -72.96280000
C      -46.15720000     -34.18560000     -69.78010000
H      -46.15970000     -34.52950000     -70.82180000
H      -46.71460000     -34.99070000     -69.23460000
C      -44.78130000     -34.02600000     -69.22430000
C      -44.41580000     -34.59230000     -68.08180000
C      -43.65920000     -33.37290000     -69.95570000
H      -45.13170000     -35.19690000     -67.41980000
C      -42.44350000     -33.42850000     -69.18010000
C      -43.38650000     -32.72480000     -71.19340000
C      -42.08890000     -32.33150000     -71.40910000
S      -42.69500000     -34.30130000     -67.64790000
S      -41.14460000     -32.58220000     -69.88640000
H      -41.55750000     -31.88770000     -72.26260000
