40
Properties=species:S:1:pos:R:3 #=T CELL(abcABC):=T 1.889726e+02=T 90.00000=T Traj:=T positionsangstrom=T Step:=T 0=T Bead:=T pbc="F F F"
C      -41.95760000     -37.11150000     -71.60320000
C      -42.51280000     -35.83240000     -71.37080000
C      -43.24940000     -35.14670000     -72.37190000
C      -43.34820000     -35.78850000     -73.66570000
C      -42.54960000     -36.89480000     -73.93580000
C      -41.92390000     -37.57450000     -72.90080000
H      -41.54310000     -37.68040000     -70.70910000
H      -43.65520000     -34.20770000     -72.15850000
H      -42.51780000     -37.35640000     -74.88620000
H      -41.42000000     -38.53350000     -73.13310000
C      -44.26120000     -35.17560000     -74.80120000
H      -45.37430000     -35.49320000     -74.60430000
H      -43.99080000     -35.41030000     -75.83250000
C      -42.22900000     -35.19300000     -70.00910000
H      -41.44010000     -35.69130000     -69.45120000
H      -41.90830000     -34.14590000     -70.10860000
S      -44.20880000     -33.26190000     -74.79910000
S      -43.62930000     -35.12770000     -68.81530000
C      -45.74910000     -32.76710000     -73.92930000
H      -45.74460000     -31.71700000     -74.06640000
H      -46.69910000     -33.09350000     -74.38780000
C      -44.43790000     -33.47920000     -68.82360000
H      -43.89370000     -32.84180000     -69.52540000
H      -44.25230000     -32.91730000     -67.85980000
C      -45.83340000     -33.67920000     -69.10610000
H      -45.89590000     -34.25950000     -70.01640000
H      -46.29810000     -34.29880000     -68.30210000
C      -45.93380000     -33.03530000     -72.40040000
H      -44.98090000     -32.87010000     -71.85160000
H      -46.18280000     -34.08170000     -72.13090000
C      -46.97430000     -32.12830000     -71.82850000
C      -47.84840000     -31.31850000     -72.50450000
C      -47.15410000     -31.87400000     -70.38210000
H      -47.95860000     -31.41020000     -73.60350000
C      -48.00110000     -30.78570000     -70.13270000
C      -46.64090000     -32.42350000     -69.12470000
C      -47.07050000     -31.71960000     -68.05460000
S      -48.64440000     -30.09060000     -71.61810000
S      -48.15810000     -30.37480000     -68.43390000
H      -46.80940000     -31.72640000     -66.94450000
