40
Properties=species:S:1:pos:R:3 #=T CELL(abcABC):=T 1.889726e+02=T 90.00000=T Traj:=T positionsangstrom=T Step:=T 0=T Bead:=T pbc="F F F"
C      -43.72350000     -36.70470000     -72.29570000
C      -44.80940000     -36.91100000     -71.44850000
C      -44.71460000     -36.41730000     -70.14280000
C      -43.63270000     -35.65790000     -69.65210000
C      -42.59260000     -35.38240000     -70.57510000
C      -42.60290000     -35.96100000     -71.86410000
H      -43.86030000     -37.01400000     -73.36980000
H      -45.46100000     -36.73000000     -69.38460000
H      -41.79100000     -34.68360000     -70.21810000
H      -41.86250000     -35.76660000     -72.66210000
C      -43.63830000     -35.00230000     -68.28350000
H      -42.82790000     -35.39010000     -67.64520000
H      -44.50620000     -35.23250000     -67.71470000
C      -46.12450000     -37.53750000     -71.95380000
H      -46.08980000     -37.77150000     -72.97040000
H      -46.40180000     -38.46910000     -71.35250000
S      -43.25170000     -33.22640000     -68.39110000
S      -47.45970000     -36.26910000     -71.64190000
C      -44.90750000     -32.39520000     -68.39740000
H      -45.46660000     -32.71000000     -67.41910000
H      -44.64990000     -31.36370000     -68.21270000
C      -46.80290000     -34.79230000     -72.52550000
H      -46.70150000     -35.03370000     -73.60690000
H      -45.70820000     -34.59140000     -72.30400000
C      -47.75790000     -33.58110000     -72.27910000
H      -48.61700000     -33.88660000     -72.85660000
H      -47.95570000     -33.56810000     -71.22930000
C      -45.70210000     -32.68760000     -69.61810000
H      -46.67980000     -32.94580000     -69.35020000
H      -45.30420000     -33.60710000     -70.11360000
C      -45.45240000     -31.57140000     -70.68060000
C      -44.48270000     -30.62490000     -70.64770000
C      -46.19620000     -31.46290000     -71.91090000
H      -43.75640000     -30.38490000     -69.81510000
C      -45.84360000     -30.37530000     -72.66110000
C      -47.21410000     -32.22310000     -72.67700000
C      -47.66980000     -31.63290000     -73.82410000
S      -44.40610000     -29.53770000     -72.01650000
S      -46.71780000     -30.09310000     -74.14590000
H      -48.38140000     -31.94810000     -74.53030000
