40
Properties=species:S:1:pos:R:3 #=T CELL(abcABC):=T 1.889726e+02=T 90.00000=T Traj:=T positionsangstrom=T Step:=T 0=T Bead:=T pbc="F F F"
C      -46.52400000     -35.62370000     -74.17570000
C      -46.48240000     -34.21800000     -74.42410000
C      -47.41230000     -33.42370000     -73.65430000
C      -48.20220000     -33.96050000     -72.62040000
C      -48.18930000     -35.35070000     -72.40640000
C      -47.34520000     -36.16480000     -73.20550000
H      -45.83070000     -36.12750000     -74.79570000
H      -47.38920000     -32.32790000     -73.83460000
H      -48.86560000     -35.78710000     -71.64990000
H      -47.23890000     -37.23900000     -73.01080000
C      -48.99680000     -33.00260000     -71.74980000
H      -50.09860000     -33.13120000     -72.00720000
H      -48.70030000     -31.91680000     -71.87470000
C      -45.70020000     -33.56710000     -75.47730000
H      -44.97170000     -34.30810000     -75.77440000
H      -46.21730000     -33.41070000     -76.47940000
S      -48.90520000     -33.25610000     -69.93030000
S      -44.89720000     -31.94970000     -75.03320000
C      -47.05100000     -33.03920000     -69.64740000
H      -46.74630000     -32.30560000     -70.34420000
H      -46.99110000     -32.72230000     -68.63610000
C      -43.76870000     -32.25670000     -73.57810000
H      -43.45930000     -31.32560000     -73.36710000
H      -42.87060000     -32.74600000     -73.92970000
C      -44.42480000     -32.94430000     -72.37760000
H      -45.50400000     -32.79440000     -72.20560000
H      -44.39760000     -34.01120000     -72.51600000
C      -46.14210000     -34.26290000     -69.82830000
H      -46.08880000     -34.54470000     -70.88210000
H      -46.61980000     -35.10440000     -69.25710000
C      -44.86430000     -34.01680000     -69.15440000
C      -44.57990000     -34.34200000     -67.80340000
C      -43.81320000     -33.26910000     -69.79020000
H      -45.06080000     -35.00750000     -67.11010000
C      -42.76780000     -33.01880000     -68.87620000
C      -43.60190000     -32.70200000     -71.10530000
C      -42.38020000     -31.93440000     -71.03680000
S      -42.98660000     -33.76610000     -67.34250000
S      -41.50220000     -32.04890000     -69.55870000
H      -41.87800000     -31.57710000     -71.96030000
