40
Properties=species:S:1:pos:R:3 #=T CELL(abcABC):=T 1.889726e+02=T 90.00000=T Traj:=T positionsangstrom=T Step:=T 0=T Bead:=T pbc="F F F"
C      -46.48100000     -35.53250000     -74.16150000
C      -46.44480000     -34.12310000     -74.15680000
C      -47.38650000     -33.39040000     -73.42750000
C      -48.30340000     -34.02330000     -72.58990000
C      -48.35300000     -35.44010000     -72.65590000
C      -47.40090000     -36.17570000     -73.34000000
H      -45.89560000     -36.17130000     -74.76460000
H      -47.34580000     -32.28910000     -73.45830000
H      -49.03380000     -35.99600000     -72.05930000
H      -47.46530000     -37.28100000     -73.29410000
C      -49.30150000     -33.29940000     -71.75760000
H      -50.38940000     -33.61730000     -71.96840000
H      -49.19560000     -32.18550000     -71.97190000
C      -45.40520000     -33.47220000     -75.03630000
H      -44.55910000     -34.12550000     -74.92600000
H      -45.73120000     -33.39870000     -76.04640000
S      -49.04660000     -33.64120000     -69.99840000
S      -45.05370000     -31.61530000     -74.76310000
C      -47.39120000     -32.88250000     -69.76270000
H      -47.21960000     -32.15280000     -70.57680000
H      -47.30330000     -32.28200000     -68.81510000
C      -43.77480000     -31.77740000     -73.44070000
H      -43.22870000     -30.83430000     -73.27110000
H      -43.05340000     -32.54740000     -73.85560000
C      -44.47180000     -32.21780000     -72.12520000
H      -45.12950000     -31.44790000     -71.75660000
H      -45.04290000     -33.13360000     -72.36540000
C      -46.32840000     -33.94270000     -69.78960000
H      -46.05920000     -34.12730000     -70.78330000
H      -46.60390000     -34.93150000     -69.32250000
C      -44.97850000     -33.66120000     -69.18010000
C      -44.65180000     -34.20300000     -67.99330000
C      -43.78720000     -33.07910000     -69.78190000
H      -45.29630000     -34.70100000     -67.38080000
C      -42.57270000     -33.20760000     -69.02600000
C      -43.41940000     -32.44230000     -71.04990000
C      -42.11240000     -32.19510000     -71.17420000
S      -42.97030000     -34.05520000     -67.55180000
S      -41.06310000     -32.57680000     -69.75480000
H      -41.59330000     -31.77330000     -72.05460000
