40
Properties=species:S:1:pos:R:3 #=T CELL(abcABC):=T 1.889726e+02=T 90.00000=T Traj:=T positionsangstrom=T Step:=T 0=T Bead:=T pbc="F F F"
C      -49.20030000     -35.04240000     -71.16200000
C      -48.03360000     -35.72480000     -70.90330000
C      -47.23180000     -35.24670000     -69.85740000
C      -47.63810000     -34.13520000     -69.08870000
C      -48.69910000     -33.32850000     -69.55120000
C      -49.52810000     -33.83870000     -70.51940000
H      -49.79430000     -35.41190000     -71.97600000
H      -46.24130000     -35.75750000     -69.65340000
H      -48.93760000     -32.40440000     -69.03330000
H      -50.23930000     -33.17170000     -71.01280000
C      -47.11010000     -33.96850000     -67.70090000
H      -47.52300000     -34.73610000     -67.00940000
H      -47.47250000     -33.03240000     -67.22530000
C      -47.58630000     -36.82720000     -71.82110000
H      -47.72560000     -37.88480000     -71.38530000
H      -48.13870000     -36.77650000     -72.77920000
S      -45.25200000     -33.96700000     -67.60670000
S      -45.77640000     -36.77970000     -72.17940000
C      -44.70790000     -32.46580000     -68.65340000
H      -45.39000000     -31.67520000     -68.49650000
H      -43.73750000     -32.21470000     -68.28740000
C      -45.36890000     -35.11600000     -72.83180000
H      -45.99040000     -34.37520000     -72.27960000
H      -45.74270000     -35.00070000     -73.83860000
C      -43.79920000     -34.84700000     -72.87160000
H      -43.40830000     -35.17620000     -71.95070000
H      -43.29850000     -35.46090000     -73.60310000
C      -44.65050000     -32.85180000     -70.17130000
H      -45.69160000     -33.22410000     -70.38060000
H      -43.94640000     -33.71110000     -70.27510000
C      -44.18640000     -31.80310000     -71.06220000
C      -44.21990000     -30.42190000     -70.88930000
C      -43.65390000     -32.17110000     -72.36580000
H      -44.59410000     -29.98100000     -69.94400000
C      -43.31160000     -30.99040000     -73.09310000
C      -43.38460000     -33.37560000     -73.16050000
C      -42.80670000     -33.02890000     -74.38770000
S      -43.55260000     -29.50660000     -72.27430000
S      -42.59400000     -31.25330000     -74.65550000
H      -42.35940000     -33.74000000     -75.11260000
