40
Properties=species:S:1:pos:R:3 #=T CELL(abcABC):=T 1.889726e+02=T 90.00000=T Traj:=T positionsangstrom=T Step:=T 0=T Bead:=T pbc="F F F"
C      -43.15560000     -36.41810000     -72.93740000
C      -43.99160000     -36.66100000     -71.84790000
C      -43.73810000     -36.01950000     -70.62580000
C      -42.56810000     -35.25790000     -70.43090000
C      -41.69440000     -35.06910000     -71.52240000
C      -41.97910000     -35.69690000     -72.74870000
H      -43.30630000     -36.90880000     -73.87120000
H      -44.54370000     -36.10280000     -69.88570000
H      -40.89970000     -34.34700000     -71.36240000
H      -41.32100000     -35.61470000     -73.55000000
C      -42.30320000     -34.52670000     -69.16310000
H      -41.23120000     -34.46040000     -68.96740000
H      -42.66010000     -35.19060000     -68.38120000
C      -45.33950000     -37.38070000     -71.94540000
H      -45.41820000     -37.50970000     -73.01500000
H      -45.34150000     -38.31760000     -71.38410000
S      -43.05440000     -32.85190000     -69.04230000
S      -46.83110000     -36.50830000     -71.37230000
C      -44.75150000     -33.11240000     -68.43770000
H      -44.75470000     -34.09280000     -68.02440000
H      -44.96930000     -32.38830000     -67.67490000
C      -46.67310000     -34.95740000     -72.33390000
H      -46.68850000     -35.27760000     -73.43000000
H      -45.68630000     -34.41980000     -72.14260000
C      -47.81060000     -33.99920000     -72.10100000
H      -48.68980000     -34.32950000     -72.64350000
H      -48.17650000     -33.84400000     -71.09470000
C      -45.85410000     -33.14050000     -69.47770000
H      -46.76400000     -33.38930000     -68.90010000
H      -45.64710000     -33.79280000     -70.25590000
C      -45.99240000     -31.82580000     -70.35050000
C      -45.50650000     -30.56360000     -70.00490000
C      -46.75400000     -31.69630000     -71.64500000
H      -45.06320000     -30.34770000     -69.05480000
C      -46.76890000     -30.38580000     -72.11040000
C      -47.54470000     -32.59630000     -72.47690000
C      -47.98800000     -31.97760000     -73.59100000
S      -45.91330000     -29.28490000     -71.11130000
S      -47.52530000     -30.29620000     -73.70210000
H      -48.65390000     -32.30540000     -74.32330000
