40
Properties=species:S:1:pos:R:3 #=T CELL(abcABC):=T 1.889726e+02=T 90.00000=T Traj:=T positionsangstrom=T Step:=T 0=T Bead:=T pbc="F F F"
C      -43.30350000     -36.50180000     -72.71470000
C      -44.18950000     -36.68010000     -71.62740000
C      -43.88640000     -36.09640000     -70.38530000
C      -42.75230000     -35.27920000     -70.24530000
C      -41.96470000     -35.06700000     -71.35880000
C      -42.14520000     -35.71660000     -72.58400000
H      -43.39980000     -37.09460000     -73.65710000
H      -44.47290000     -36.39160000     -69.56650000
H      -41.17370000     -34.35680000     -71.21430000
H      -41.34920000     -35.74740000     -73.27940000
C      -42.36270000     -34.55330000     -68.96150000
H      -41.24250000     -34.44990000     -68.81760000
H      -42.78750000     -35.07170000     -68.10970000
C      -45.46760000     -37.47460000     -71.83270000
H      -45.59520000     -37.87210000     -72.87150000
H      -45.53010000     -38.29060000     -71.14980000
S      -42.99080000     -32.77500000     -69.13770000
S      -47.04450000     -36.42480000     -71.44530000
C      -44.82320000     -33.19120000     -68.50930000
H      -44.78460000     -34.25780000     -68.15170000
H      -45.08520000     -32.50460000     -67.74200000
C      -46.87230000     -35.06520000     -72.67870000
H      -46.98590000     -35.36670000     -73.72580000
H      -45.90130000     -34.73650000     -72.47460000
C      -47.88880000     -34.04990000     -72.21710000
H      -48.88200000     -34.30330000     -72.59410000
H      -48.01570000     -34.22540000     -71.11710000
C      -45.76500000     -33.10250000     -69.62130000
H      -46.78920000     -33.26300000     -69.30930000
H      -45.45570000     -33.83700000     -70.45440000
C      -45.89330000     -31.77190000     -70.37930000
C      -45.24860000     -30.58890000     -70.05840000
C      -46.64680000     -31.73170000     -71.60680000
H      -44.54690000     -30.36840000     -69.28150000
C      -46.51380000     -30.44680000     -72.17930000
C      -47.49190000     -32.54670000     -72.48420000
C      -47.89000000     -31.86830000     -73.62470000
S      -45.75520000     -29.28360000     -71.16440000
S      -47.25920000     -30.23730000     -73.73310000
H      -48.30460000     -32.19590000     -74.53850000
