40
Properties=species:S:1:pos:R:3 #=T CELL(abcABC):=T 1.889726e+02=T 90.00000=T Traj:=T positionsangstrom=T Step:=T 0=T Bead:=T pbc="F F F"
C      -42.98400000     -36.11980000     -73.10650000
C      -43.76800000     -36.44480000     -71.98650000
C      -43.56710000     -35.84770000     -70.72480000
C      -42.58330000     -34.87610000     -70.52720000
C      -41.78630000     -34.53790000     -71.66150000
C      -41.98010000     -35.13830000     -72.90880000
H      -43.11680000     -36.57870000     -74.10910000
H      -44.20770000     -36.14000000     -69.94590000
H      -41.03720000     -33.81780000     -71.46500000
H      -41.31050000     -34.82750000     -73.71700000
C      -42.33690000     -34.26910000     -69.22460000
H      -41.26040000     -34.24690000     -68.97920000
H      -42.82160000     -34.82240000     -68.42640000
C      -44.88310000     -37.50080000     -72.11240000
H      -45.06860000     -37.79230000     -73.17390000
H      -44.63070000     -38.44990000     -71.63610000
S      -42.75950000     -32.45210000     -68.98290000
S      -46.54170000     -36.93300000     -71.44280000
C      -44.54910000     -32.64340000     -68.39540000
H      -44.58640000     -33.47320000     -67.75600000
H      -44.69290000     -31.77180000     -67.73810000
C      -46.66230000     -35.25910000     -72.15210000
H      -46.83870000     -35.34600000     -73.22510000
H      -45.70490000     -34.71510000     -72.18500000
C      -47.76330000     -34.41180000     -71.66170000
H      -48.75480000     -34.66800000     -72.12380000
H      -48.03260000     -34.54150000     -70.62780000
C      -45.61510000     -32.85370000     -69.45440000
H      -46.52760000     -32.95150000     -68.89730000
H      -45.44460000     -33.76090000     -70.03480000
C      -45.94490000     -31.72300000     -70.41110000
C      -45.56740000     -30.38680000     -70.19950000
C      -46.87530000     -31.85290000     -71.49300000
H      -44.72580000     -30.07290000     -69.56380000
C      -47.03850000     -30.62930000     -72.15930000
C      -47.61420000     -32.94760000     -72.07900000
C      -48.36100000     -32.53860000     -73.17780000
S      -46.10720000     -29.32500000     -71.42030000
S      -48.17930000     -30.76830000     -73.51700000
H      -49.02950000     -33.11810000     -73.81440000
