40
Properties=species:S:1:pos:R:3 #=T CELL(abcABC):=T 1.889726e+02=T 90.00000=T Traj:=T positionsangstrom=T Step:=T 0=T Bead:=T pbc="F F F"
C      -43.04930000     -36.57300000     -72.86880000
C      -43.98300000     -36.63120000     -71.86370000
C      -43.72250000     -35.94810000     -70.64010000
C      -42.64300000     -35.10370000     -70.49440000
C      -41.73090000     -35.02850000     -71.59370000
C      -41.97530000     -35.73400000     -72.80370000
H      -43.21200000     -37.03300000     -73.81270000
H      -44.48050000     -36.12970000     -69.83210000
H      -40.88910000     -34.32900000     -71.57340000
H      -41.25870000     -35.69350000     -73.63700000
C      -42.33030000     -34.37070000     -69.25190000
H      -41.23590000     -34.21510000     -69.12240000
H      -42.66800000     -34.89650000     -68.33820000
C      -45.21040000     -37.49140000     -72.06210000
H      -45.27580000     -37.78460000     -73.13620000
H      -45.24670000     -38.42680000     -71.40930000
S      -43.04010000     -32.68270000     -69.02830000
S      -46.72270000     -36.52760000     -71.45920000
C      -44.72980000     -33.07500000     -68.48290000
H      -44.64080000     -33.92610000     -67.83230000
H      -45.09500000     -32.26310000     -67.75770000
C      -46.64280000     -34.96010000     -72.52680000
H      -46.72830000     -35.16120000     -73.53660000
H      -45.68070000     -34.44910000     -72.41190000
C      -47.86920000     -34.07330000     -72.10640000
H      -48.80560000     -34.44730000     -72.62420000
H      -48.00780000     -34.17740000     -71.03120000
C      -45.83030000     -33.14440000     -69.56310000
H      -46.68130000     -33.53730000     -68.94980000
H      -45.54180000     -33.90430000     -70.21910000
C      -46.14450000     -31.85420000     -70.29230000
C      -45.60620000     -30.62500000     -69.90880000
C      -46.82770000     -31.74370000     -71.53630000
H      -45.02690000     -30.49790000     -68.97920000
C      -46.82020000     -30.42010000     -72.02570000
C      -47.62150000     -32.65520000     -72.38690000
C      -48.10720000     -32.04180000     -73.46100000
S      -45.86530000     -29.30860000     -71.10590000
S      -47.55130000     -30.33280000     -73.57610000
H      -48.81800000     -32.37380000     -74.21400000
