40
Properties=species:S:1:pos:R:3 #=T CELL(abcABC):=T 1.889726e+02=T 90.00000=T Traj:=T positionsangstrom=T Step:=T 0=T Bead:=T pbc="F F F"
C      -43.29650000     -36.31600000     -72.82650000
C      -44.14910000     -36.55920000     -71.71050000
C      -43.84610000     -36.01880000     -70.48070000
C      -42.58980000     -35.32920000     -70.33990000
C      -41.74940000     -35.23860000     -71.43350000
C      -42.07490000     -35.71160000     -72.69860000
H      -43.76470000     -36.60070000     -73.78880000
H      -44.40570000     -36.07420000     -69.59530000
H      -40.78830000     -34.76690000     -71.28820000
H      -41.49740000     -35.35540000     -73.54140000
C      -42.31970000     -34.60730000     -69.01910000
H      -41.23560000     -34.45430000     -68.75540000
H      -42.87960000     -35.21070000     -68.25220000
C      -45.29480000     -37.47630000     -71.88810000
H      -45.44760000     -37.98420000     -72.89480000
H      -45.14600000     -38.39120000     -71.36340000
S      -43.01430000     -32.89180000     -69.10710000
S      -46.88530000     -36.58770000     -71.31890000
C      -44.84830000     -33.02210000     -68.57290000
H      -44.90490000     -33.93530000     -67.84280000
H      -45.01410000     -32.11670000     -68.00030000
C      -46.87680000     -35.10680000     -72.49140000
H      -47.15650000     -35.45880000     -73.48940000
H      -45.90800000     -34.74390000     -72.46280000
C      -47.90250000     -33.95600000     -72.11850000
H      -48.88610000     -34.16750000     -72.50680000
H      -47.91860000     -34.06200000     -71.01240000
C      -45.89120000     -33.02530000     -69.65120000
H      -46.85160000     -33.47290000     -69.36200000
H      -45.61400000     -33.91030000     -70.34600000
C      -46.00530000     -31.73530000     -70.41190000
C      -45.44180000     -30.52440000     -69.95490000
C      -46.71310000     -31.62740000     -71.67280000
H      -44.73900000     -30.33050000     -69.15930000
C      -46.62360000     -30.35770000     -72.19460000
C      -47.41610000     -32.57950000     -72.49990000
C      -47.87920000     -32.00080000     -73.65780000
S      -45.71540000     -29.23290000     -71.13060000
S      -47.49750000     -30.23850000     -73.71250000
H      -48.38030000     -32.40530000     -74.51450000
