40
Properties=species:S:1:pos:R:3 #=T CELL(abcABC):=T 1.889726e+02=T 90.00000=T Traj:=T positionsangstrom=T Step:=T 0=T Bead:=T pbc="F F F"
C      -43.08140000     -35.76050000     -73.07620000
C      -43.49730000     -36.09860000     -71.71560000
C      -43.12640000     -35.31390000     -70.64220000
C      -42.62960000     -34.01400000     -70.79040000
C      -42.51950000     -33.56150000     -72.11580000
C      -42.65590000     -34.39760000     -73.21570000
H      -43.16790000     -36.38250000     -73.97080000
H      -43.26670000     -35.70730000     -69.65300000
H      -42.22220000     -32.52270000     -72.25390000
H      -42.51020000     -33.92790000     -74.16800000
C      -42.00210000     -33.20930000     -69.67670000
H      -40.97860000     -32.78760000     -69.86970000
H      -41.74890000     -33.82580000     -68.81550000
C      -44.26230000     -37.35550000     -71.52420000
H      -44.31510000     -37.90280000     -72.45700000
H      -43.93300000     -37.89420000     -70.62650000
S      -42.86810000     -31.68110000     -69.02020000
S      -46.04440000     -37.11250000     -70.94190000
C      -44.49470000     -32.20460000     -68.41260000
H      -44.36360000     -32.93480000     -67.59830000
H      -44.92770000     -31.34650000     -67.85730000
C      -46.72470000     -35.71070000     -71.87130000
H      -47.34600000     -36.03640000     -72.77580000
H      -45.86650000     -35.13210000     -72.12430000
C      -47.70440000     -34.79560000     -70.99970000
H      -48.73690000     -35.19530000     -70.84170000
H      -47.38470000     -34.69650000     -69.98600000
C      -45.48340000     -32.87090000     -69.37230000
H      -46.32490000     -33.29570000     -68.80310000
H      -45.04320000     -33.77150000     -69.69600000
C      -45.96440000     -31.95560000     -70.51550000
C      -45.54130000     -30.62960000     -70.62510000
C      -46.92800000     -32.34320000     -71.51550000
H      -44.93930000     -30.14440000     -69.84070000
C      -47.10020000     -31.25070000     -72.40160000
C      -47.78650000     -33.43080000     -71.75080000
C      -48.65170000     -33.20270000     -72.82700000
S      -46.32600000     -29.77020000     -71.96260000
S      -48.28890000     -31.73460000     -73.66870000
H      -49.37100000     -33.85210000     -73.37060000
