40
Properties=species:S:1:pos:R:3 #=T CELL(abcABC):=T 1.889726e+02=T 90.00000=T Traj:=T positionsangstrom=T Step:=T 0=T Bead:=T pbc="F F F"
C      -43.07660000     -35.86080000     -72.97830000
C      -43.61470000     -36.38410000     -71.78180000
C      -43.20640000     -35.76720000     -70.61040000
C      -42.39130000     -34.59760000     -70.63280000
C      -41.98190000     -34.00960000     -71.81470000
C      -42.28730000     -34.73790000     -72.99460000
H      -43.30050000     -36.26170000     -73.94680000
H      -43.44760000     -36.20630000     -69.64440000
H      -41.46040000     -33.07450000     -71.86190000
H      -41.85160000     -34.28580000     -73.92100000
C      -41.96580000     -34.00910000     -69.29550000
H      -40.90550000     -33.75150000     -69.21870000
H      -42.28570000     -34.70160000     -68.51200000
C      -44.74340000     -37.42740000     -71.77040000
H      -44.87490000     -37.86360000     -72.79660000
H      -44.55700000     -38.19140000     -71.02340000
S      -42.87790000     -32.35880000     -68.92110000
S      -46.29360000     -36.70630000     -71.11320000
C      -44.60320000     -32.88220000     -68.56740000
H      -44.47260000     -33.82060000     -67.96420000
H      -45.11910000     -32.11500000     -67.96660000
C      -46.80880000     -35.26430000     -72.31670000
H      -47.13660000     -35.69510000     -73.22590000
H      -45.86270000     -34.66480000     -72.42610000
C      -47.92580000     -34.52190000     -71.55990000
H      -48.87970000     -35.00610000     -71.87010000
H      -47.84190000     -34.58120000     -70.46310000
C      -45.45090000     -33.16950000     -69.79880000
H      -46.41100000     -33.62710000     -69.42200000
H      -44.95540000     -33.98800000     -70.37960000
C      -45.75790000     -32.01320000     -70.70350000
C      -45.23130000     -30.73480000     -70.66470000
C      -46.92420000     -32.04580000     -71.54210000
H      -44.28120000     -30.51830000     -70.10120000
C      -47.12170000     -30.82880000     -72.19720000
C      -47.86710000     -33.05700000     -71.98860000
C      -48.76080000     -32.53280000     -72.88510000
S      -46.00860000     -29.59810000     -71.77140000
S      -48.49300000     -30.85440000     -73.27880000
H      -49.34910000     -33.12500000     -73.58730000
