40
Properties=species:S:1:pos:R:3 #=T CELL(abcABC):=T 1.889726e+02=T 90.00000=T Traj:=T positionsangstrom=T Step:=T 0=T Bead:=T pbc="F F F"
C      -46.70190000     -37.08270000     -68.94770000
C      -45.49090000     -36.59690000     -69.37890000
C      -45.15400000     -36.59150000     -70.76300000
C      -46.15120000     -36.87420000     -71.67880000
C      -47.42000000     -37.30300000     -71.27560000
C      -47.65260000     -37.46240000     -69.88780000
H      -46.89000000     -37.08990000     -67.89350000
H      -44.14510000     -36.43930000     -70.96190000
H      -48.25370000     -37.39340000     -71.95720000
H      -48.52940000     -38.17440000     -69.60950000
C      -45.80430000     -36.69170000     -73.20890000
H      -46.68560000     -36.62940000     -73.81630000
H      -45.26620000     -37.63100000     -73.50420000
C      -44.43070000     -36.19790000     -68.34020000
H      -44.92160000     -35.86090000     -67.49070000
H      -43.80310000     -37.00090000     -67.89010000
S      -44.79590000     -35.33200000     -73.72470000
S      -43.24920000     -34.91490000     -68.89770000
C      -45.92410000     -33.96130000     -73.22380000
H      -46.96170000     -34.21270000     -73.48680000
H      -45.80960000     -33.80070000     -72.14880000
C      -44.30470000     -33.78100000     -69.89660000
H      -44.87340000     -33.21880000     -69.25370000
H      -45.04570000     -34.43540000     -70.39310000
C      -43.53850000     -32.84390000     -70.88830000
H      -42.49230000     -32.80090000     -70.55710000
H      -43.39140000     -33.42330000     -71.76640000
C      -45.57510000     -32.71430000     -73.98410000
H      -46.13420000     -32.68910000     -74.93070000
H      -44.50600000     -32.79300000     -74.17870000
C      -45.80350000     -31.40000000     -73.24380000
C      -46.69530000     -30.43740000     -73.63360000
C      -45.18410000     -30.94070000     -71.97830000
H      -47.30750000     -30.50550000     -74.44120000
C      -45.55140000     -29.67420000     -71.53560000
C      -44.13250000     -31.43660000     -71.03270000
C      -43.86400000     -30.59110000     -70.04220000
S      -46.92330000     -29.13170000     -72.53660000
S      -44.73880000     -29.00800000     -70.19580000
H      -43.03810000     -30.74720000     -69.30900000
