40
Properties=species:S:1:pos:R:3 #=T CELL(abcABC):=T 1.889726e+02=T 90.00000=T Traj:=T positionsangstrom=T Step:=T 0=T Bead:=T pbc="F F F"
C      -45.33260000     -31.43090000     -67.91500000
C      -45.10850000     -30.78240000     -69.15030000
C      -43.92850000     -31.03760000     -69.89350000
C      -43.04310000     -31.99760000     -69.41260000
C      -43.24880000     -32.51550000     -68.11040000
C      -44.35230000     -32.22410000     -67.35310000
H      -46.24770000     -31.28860000     -67.35520000
H      -43.74360000     -30.49070000     -70.81190000
H      -42.52070000     -33.21680000     -67.71040000
H      -44.47890000     -32.63750000     -66.29470000
C      -41.90000000     -32.33550000     -70.29090000
H      -40.97940000     -31.86270000     -69.97600000
H      -42.10800000     -31.87570000     -71.22650000
C      -46.10400000     -29.74880000     -69.68250000
H      -47.08390000     -29.88640000     -69.18740000
H      -45.76190000     -28.75760000     -69.46180000
S      -41.44290000     -34.09050000     -70.48190000
S      -46.24250000     -29.68140000     -71.52480000
C      -42.56090000     -34.52770000     -71.85700000
H      -42.29350000     -33.98320000     -72.73630000
H      -42.29920000     -35.56450000     -72.05190000
C      -46.28990000     -31.39270000     -72.21480000
H      -45.35050000     -31.81680000     -72.53350000
H      -46.86410000     -31.33440000     -73.14650000
C      -46.97400000     -32.42450000     -71.25550000
H      -46.29230000     -32.56710000     -70.42360000
H      -47.84920000     -31.94360000     -70.80330000
C      -44.08200000     -34.41180000     -71.48920000
H      -44.47060000     -33.34790000     -71.50870000
H      -44.14260000     -34.66160000     -70.40820000
C      -45.04090000     -35.19880000     -72.27070000
C      -44.78200000     -36.38060000     -72.89860000
C      -46.44360000     -34.81260000     -72.37830000
H      -43.85940000     -36.90650000     -72.75050000
C      -47.15570000     -35.76830000     -73.18340000
C      -47.35250000     -33.75200000     -71.94990000
C      -48.64720000     -34.00940000     -72.42680000
S      -46.17330000     -37.09510000     -73.81800000
S      -48.86760000     -35.43300000     -73.38990000
H      -49.45840000     -33.41140000     -72.12470000
