40
Properties=species:S:1:pos:R:3 #=T CELL(abcABC):=T 1.889726e+02=T 90.00000=T Traj:=T positionsangstrom=T Step:=T 0=T Bead:=T pbc="F F F"
C      -48.69650000     -30.82400000     -70.95750000
C      -47.51860000     -30.96560000     -70.24870000
C      -46.33880000     -30.53640000     -70.80780000
C      -46.38930000     -30.00840000     -72.10440000
C      -47.56490000     -29.85230000     -72.85430000
C      -48.73880000     -30.22350000     -72.23380000
H      -49.59730000     -31.21560000     -70.52410000
H      -45.34920000     -30.71060000     -70.38550000
H      -47.53590000     -29.27950000     -73.76950000
H      -49.72650000     -30.29470000     -72.65700000
C      -45.07860000     -29.52530000     -72.67180000
H      -44.47630000     -29.06840000     -71.91320000
H      -45.35320000     -28.78550000     -73.43930000
C      -47.47280000     -31.52680000     -68.81010000
H      -46.46970000     -31.72670000     -68.48870000
H      -48.01840000     -30.90420000     -68.12890000
S      -44.06360000     -30.76080000     -73.61250000
S      -48.37130000     -33.19320000     -68.68680000
C      -44.33010000     -32.44320000     -72.76500000
H      -45.32640000     -32.58460000     -72.29020000
H      -44.26840000     -33.17040000     -73.57640000
C      -47.16450000     -34.51180000     -69.08110000
H      -47.78420000     -35.34690000     -69.38670000
H      -46.84600000     -34.79340000     -68.09170000
C      -45.98510000     -34.23400000     -70.08540000
H      -46.45450000     -33.84350000     -71.02350000
H      -45.39390000     -33.36770000     -69.71280000
C      -43.28900000     -32.68870000     -71.69360000
H      -43.61410000     -32.24160000     -70.70390000
H      -42.36700000     -32.13110000     -71.84750000
C      -43.01720000     -34.17350000     -71.61710000
C      -41.85940000     -34.63560000     -72.20210000
C      -43.94460000     -35.25840000     -71.22300000
H      -41.02920000     -34.00790000     -72.60130000
C      -43.42380000     -36.48690000     -71.70190000
C      -45.20230000     -35.41880000     -70.47860000
C      -45.56870000     -36.75490000     -70.41240000
S      -41.79850000     -36.37430000     -72.41840000
S      -44.39520000     -37.88070000     -71.16870000
H      -46.49390000     -37.15090000     -69.94800000
