40
Properties=species:S:1:pos:R:3 #=T CELL(abcABC):=T 1.889726e+02=T 90.00000=T Traj:=T positionsangstrom=T Step:=T 0=T Bead:=T pbc="F F F"
C      -42.79140000     -34.71060000     -73.50250000
C      -42.59890000     -35.05650000     -72.18600000
C      -42.36690000     -34.06090000     -71.22150000
C      -42.27200000     -32.73850000     -71.65230000
C      -42.41060000     -32.41330000     -72.98970000
C      -42.74660000     -33.38860000     -73.91270000
H      -43.10730000     -35.50740000     -74.23480000
H      -42.12090000     -34.34820000     -70.20580000
H      -42.39120000     -31.36320000     -73.14280000
H      -42.97860000     -33.14680000     -75.01550000
C      -41.88360000     -31.63440000     -70.66320000
H      -41.08140000     -31.04760000     -71.21550000
H      -41.40890000     -32.12900000     -69.82840000
C      -42.64270000     -36.51520000     -71.78600000
H      -42.80120000     -37.16810000     -72.68650000
H      -41.82570000     -36.91310000     -71.17090000
S      -43.31350000     -30.60840000     -70.32460000
S      -44.15250000     -36.84460000     -70.68480000
C      -44.22780000     -31.66010000     -69.03270000
H      -43.60470000     -32.23200000     -68.29680000
H      -44.73910000     -30.88720000     -68.49620000
C      -45.62440000     -35.90090000     -71.48940000
H      -46.10340000     -36.40190000     -72.31240000
H      -45.19720000     -34.96240000     -71.85180000
C      -46.58050000     -35.63820000     -70.35550000
H      -47.10270000     -36.49890000     -70.08980000
H      -46.08550000     -35.30920000     -69.47380000
C      -45.14560000     -32.65650000     -69.74290000
H      -45.43500000     -33.40230000     -68.99650000
H      -44.60920000     -33.25540000     -70.52100000
C      -46.40790000     -32.18590000     -70.44050000
C      -46.71310000     -30.88970000     -70.69200000
C      -47.35680000     -33.12700000     -70.92350000
H      -46.31210000     -30.08390000     -70.17940000
C      -48.42810000     -32.51500000     -71.57880000
C      -47.54080000     -34.57270000     -70.86630000
C      -48.70210000     -34.95640000     -71.49750000
S      -48.28440000     -30.74200000     -71.55650000
S      -49.50120000     -33.61930000     -72.32480000
H      -48.94230000     -36.00070000     -71.64720000
