40
Properties=species:S:1:pos:R:3 #=T CELL(abcABC):=T 1.889726e+02=T 90.00000=T Traj:=T positionsangstrom=T Step:=T 0=T Bead:=T pbc="F F F"
C      -43.66110000     -34.86820000     -73.48940000
C      -42.88210000     -35.34640000     -72.38750000
C      -42.29260000     -34.35730000     -71.51220000
C      -42.31580000     -32.96040000     -71.86170000
C      -42.89720000     -32.58450000     -73.08260000
C      -43.61090000     -33.51160000     -73.86550000
H      -44.23460000     -35.57220000     -74.04860000
H      -41.57550000     -34.60290000     -70.69790000
H      -42.67090000     -31.54060000     -73.46990000
H      -44.18530000     -33.14480000     -74.71990000
C      -41.75540000     -31.92250000     -70.96230000
H      -41.09140000     -31.25980000     -71.61210000
H      -41.16170000     -32.26750000     -70.13790000
C      -42.92530000     -36.76430000     -71.95270000
H      -43.08200000     -37.30680000     -72.85040000
H      -41.94550000     -37.09230000     -71.47220000
S      -43.01360000     -30.69360000     -70.36190000
S      -44.43780000     -37.24500000     -70.93090000
C      -43.82720000     -31.77540000     -69.04690000
H      -42.99030000     -32.35860000     -68.66650000
H      -44.13200000     -31.12910000     -68.19280000
C      -45.76410000     -36.07960000     -71.61020000
H      -46.41730000     -36.54320000     -72.42360000
H      -45.23100000     -35.27260000     -72.11860000
C      -46.53300000     -35.50080000     -70.51800000
H      -47.14430000     -36.16600000     -69.92080000
H      -45.92600000     -35.03900000     -69.77010000
C      -44.97790000     -32.72300000     -69.53270000
H      -45.39990000     -33.24680000     -68.62140000
H      -44.50840000     -33.42940000     -70.24100000
C      -46.18530000     -32.13200000     -70.24610000
C      -46.38200000     -30.79340000     -70.38820000
C      -47.24950000     -32.95040000     -70.76020000
H      -45.73820000     -29.98110000     -70.08690000
C      -48.25760000     -32.15100000     -71.28450000
C      -47.40590000     -34.36340000     -71.02240000
C      -48.50530000     -34.63120000     -71.78260000
S      -47.94060000     -30.41630000     -71.19260000
S      -49.47860000     -33.13450000     -72.05560000
H      -48.75570000     -35.56480000     -72.23560000
