40
Properties=species:S:1:pos:R:3 #=T CELL(abcABC):=T 1.889726e+02=T 90.00000=T Traj:=T positionsangstrom=T Step:=T 0=T Bead:=T pbc="F F F"
C      -42.93470000     -34.74560000     -73.69520000
C      -42.69490000     -35.23000000     -72.40960000
C      -42.51800000     -34.25620000     -71.40410000
C      -42.37400000     -32.91670000     -71.78060000
C      -42.57640000     -32.48630000     -73.05730000
C      -42.88430000     -33.39370000     -74.03680000
H      -43.20760000     -35.41830000     -74.50010000
H      -42.40120000     -34.57730000     -70.37600000
H      -42.40330000     -31.44440000     -73.34320000
H      -43.04480000     -32.96110000     -74.95880000
C      -42.00570000     -31.99320000     -70.71020000
H      -41.05100000     -31.46510000     -70.80970000
H      -41.97850000     -32.53780000     -69.76190000
C      -42.81060000     -36.67420000     -72.03510000
H      -42.96730000     -37.38860000     -72.88340000
H      -41.78900000     -36.92930000     -71.60390000
S      -43.40250000     -30.75410000     -70.32270000
S      -44.06860000     -36.75370000     -70.60450000
C      -44.33710000     -31.50700000     -68.93720000
H      -43.56990000     -31.79320000     -68.21930000
H      -44.93450000     -30.69170000     -68.48810000
C      -45.28860000     -35.55180000     -71.33310000
H      -45.41560000     -35.77320000     -72.40200000
H      -44.97120000     -34.55390000     -71.34000000
C      -46.58790000     -35.70500000     -70.54200000
H      -46.98360000     -36.67600000     -70.69540000
H      -46.38350000     -35.61120000     -69.47890000
C      -45.19360000     -32.60500000     -69.32530000
H      -45.63140000     -33.12230000     -68.47840000
H      -44.60220000     -33.40150000     -69.74140000
C      -46.30290000     -32.17530000     -70.35800000
C      -46.52240000     -30.89500000     -70.68540000
C      -47.29000000     -33.11840000     -70.88130000
H      -45.92160000     -30.02560000     -70.61580000
C      -48.30470000     -32.43450000     -71.56640000
C      -47.52120000     -34.59080000     -70.92290000
C      -48.71980000     -34.83340000     -71.46030000
S      -48.05700000     -30.68920000     -71.60390000
S      -49.54880000     -33.44500000     -72.13750000
H      -49.06340000     -35.90640000     -71.49970000
