40
Properties=species:S:1:pos:R:3 #=T CELL(abcABC):=T 1.889726e+02=T 90.00000=T Traj:=T positionsangstrom=T Step:=T 0=T Bead:=T pbc="F F F"
C      -42.83550000     -34.71770000     -73.39590000
C      -42.53350000     -35.04790000     -72.09100000
C      -42.27480000     -34.02440000     -71.17940000
C      -42.23210000     -32.67510000     -71.62740000
C      -42.35640000     -32.39360000     -72.98490000
C      -42.59130000     -33.43300000     -73.92170000
H      -43.07630000     -35.50820000     -74.05250000
H      -42.14700000     -34.26540000     -70.13630000
H      -42.09880000     -31.38720000     -73.24720000
H      -42.62160000     -33.35420000     -75.02650000
C      -41.89580000     -31.62860000     -70.67800000
H      -41.05520000     -30.99030000     -70.82270000
H      -41.71950000     -32.10670000     -69.70990000
C      -42.73130000     -36.51500000     -71.71710000
H      -42.81780000     -37.08200000     -72.59810000
H      -41.86530000     -36.94250000     -71.23780000
S      -43.32770000     -30.44440000     -70.37000000
S      -44.11040000     -36.96320000     -70.47050000
C      -44.38520000     -31.44630000     -69.17400000
H      -43.68370000     -31.77220000     -68.39590000
H      -45.02150000     -30.66270000     -68.62690000
C      -45.44410000     -36.10910000     -71.30830000
H      -45.83340000     -36.77220000     -72.13300000
H      -45.00590000     -35.27290000     -71.89560000
C      -46.56450000     -35.61280000     -70.48350000
H      -47.13540000     -36.55800000     -70.14980000
H      -46.10080000     -35.08710000     -69.67140000
C      -45.12370000     -32.64960000     -69.69070000
H      -45.36980000     -33.29340000     -68.92520000
H      -44.31300000     -33.19360000     -70.27420000
C      -46.39770000     -32.26980000     -70.45190000
C      -46.78120000     -30.94340000     -70.67120000
C      -47.36340000     -33.18310000     -71.03280000
H      -46.20530000     -30.06340000     -70.36460000
C      -48.47740000     -32.50300000     -71.56550000
C      -47.51820000     -34.63380000     -71.13130000
C      -48.68420000     -34.99770000     -71.81560000
S      -48.25190000     -30.77230000     -71.60020000
S      -49.67550000     -33.58540000     -72.31200000
H      -49.13060000     -35.95330000     -71.87600000
