40
Properties=species:S:1:pos:R:3 #=T CELL(abcABC):=T 1.889726e+02=T 90.00000=T Traj:=T positionsangstrom=T Step:=T 0=T Bead:=T pbc="F F F"
C      -41.79150000     -34.63150000     -72.51110000
C      -42.29240000     -34.62510000     -71.17690000
C      -42.33700000     -33.42770000     -70.45220000
C      -42.21310000     -32.21430000     -71.14640000
C      -41.71380000     -32.20440000     -72.47510000
C      -41.44220000     -33.42770000     -73.14080000
H      -41.73820000     -35.50340000     -73.08050000
H      -42.67660000     -33.40190000     -69.42260000
H      -41.36940000     -31.27150000     -72.95170000
H      -41.06660000     -33.60130000     -74.15440000
C      -42.42360000     -30.86360000     -70.44040000
H      -41.64900000     -30.22560000     -70.90590000
H      -42.06360000     -31.04390000     -69.40090000
C      -42.37100000     -35.92610000     -70.43360000
H      -42.28830000     -36.79970000     -71.09990000
H      -41.60970000     -35.99580000     -69.67060000
S      -43.95120000     -30.18530000     -70.96830000
S      -43.99460000     -36.23980000     -69.44860000
C      -45.14860000     -30.77400000     -69.70630000
H      -44.58040000     -30.85400000     -68.82040000
H      -45.91490000     -29.92780000     -69.61900000
C      -45.30760000     -35.74810000     -70.69250000
H      -45.46410000     -36.56780000     -71.39740000
H      -44.95360000     -34.95970000     -71.34740000
C      -46.61640000     -35.47420000     -69.93890000
H      -47.08780000     -36.37640000     -69.50390000
H      -46.46860000     -34.83000000     -69.02140000
C      -45.76640000     -32.12900000     -70.00620000
H      -46.39990000     -32.53060000     -69.17460000
H      -45.13880000     -32.94250000     -70.23040000
C      -46.73470000     -32.24730000     -71.15680000
C      -46.92500000     -31.32600000     -72.16940000
C      -47.44430000     -33.47680000     -71.42530000
H      -46.59110000     -30.26540000     -72.19110000
C      -48.44210000     -33.29450000     -72.35190000
C      -47.63240000     -34.87000000     -70.84930000
C      -48.58200000     -35.61160000     -71.44550000
S      -48.25310000     -31.78620000     -73.23360000
S      -49.52470000     -34.70150000     -72.56710000
H      -48.73450000     -36.59880000     -71.08490000
