40
Properties=species:S:1:pos:R:3 #=T CELL(abcABC):=T 1.889726e+02=T 90.00000=T Traj:=T positionsangstrom=T Step:=T 0=T Bead:=T pbc="F F F"
C      -42.33590000     -34.90400000     -73.08960000
C      -42.41680000     -34.96540000     -71.68060000
C      -42.10370000     -33.73590000     -70.94280000
C      -42.14880000     -32.50220000     -71.56080000
C      -42.16590000     -32.54620000     -72.97550000
C      -42.16820000     -33.68970000     -73.76530000
H      -42.51030000     -35.85580000     -73.65190000
H      -42.14400000     -33.77410000     -69.88000000
H      -42.06860000     -31.54800000     -73.54480000
H      -42.02590000     -33.66670000     -74.84110000
C      -42.10710000     -31.25440000     -70.78670000
H      -41.50870000     -30.44930000     -71.22420000
H      -41.91170000     -31.52950000     -69.77860000
C      -42.48210000     -36.33520000     -71.01410000
H      -42.59530000     -37.06980000     -71.77330000
H      -41.57560000     -36.47240000     -70.39360000
S      -43.83050000     -30.45280000     -70.79800000
S      -43.92910000     -36.52300000     -69.91760000
C      -44.51850000     -31.26300000     -69.30730000
H      -43.75120000     -31.61810000     -68.58530000
H      -45.21640000     -30.49870000     -68.74570000
C      -45.42070000     -36.01770000     -70.97120000
H      -45.75780000     -36.86630000     -71.57630000
H      -45.08960000     -35.19740000     -71.57980000
C      -46.60410000     -35.57220000     -70.08200000
H      -47.10950000     -36.43310000     -69.58630000
H      -46.16280000     -34.94770000     -69.21170000
C      -45.42670000     -32.48890000     -69.70560000
H      -45.72090000     -32.94380000     -68.74010000
H      -44.82360000     -33.22200000     -70.13110000
C      -46.62690000     -32.12530000     -70.61400000
C      -46.95960000     -30.93150000     -71.19870000
C      -47.47190000     -33.20660000     -71.06670000
H      -46.50330000     -29.94470000     -71.09860000
C      -48.46840000     -32.77180000     -71.93540000
C      -47.57220000     -34.71930000     -70.90720000
C      -48.61470000     -35.29700000     -71.59860000
S      -48.35050000     -30.96890000     -72.21780000
S      -49.46800000     -34.05020000     -72.55980000
H      -48.84580000     -36.37780000     -71.71630000
