40
Properties=species:S:1:pos:R:3 #=T CELL(abcABC):=T 1.889726e+02=T 90.00000=T Traj:=T positionsangstrom=T Step:=T 0=T Bead:=T pbc="F F F"
C      -41.88890000     -34.81760000     -71.57500000
C      -42.14430000     -34.31970000     -70.29960000
C      -42.35120000     -33.00790000     -70.04660000
C      -42.42600000     -32.06340000     -71.09290000
C      -42.27200000     -32.56450000     -72.39920000
C      -41.85420000     -33.88950000     -72.62070000
H      -41.60330000     -35.81160000     -71.80860000
H      -42.70600000     -32.69160000     -69.09730000
H      -42.37330000     -31.88830000     -73.26540000
H      -41.51670000     -34.27730000     -73.52290000
C      -42.70030000     -30.59900000     -70.84780000
H      -41.95320000     -29.88480000     -71.24610000
H      -42.69770000     -30.43730000     -69.73990000
C      -42.16770000     -35.27280000     -69.14840000
H      -41.37510000     -36.04410000     -69.23740000
H      -41.92550000     -34.61750000     -68.31480000
S      -44.31890000     -29.99530000     -71.45620000
S      -43.86780000     -35.97420000     -68.83200000
C      -45.42090000     -30.57660000     -70.13570000
H      -44.96630000     -30.56490000     -69.17120000
H      -46.24430000     -29.88300000     -69.99440000
C      -44.82950000     -35.55500000     -70.39450000
H      -44.73340000     -36.36450000     -71.11030000
H      -44.37270000     -34.62250000     -70.73080000
C      -46.31040000     -35.33180000     -70.01550000
H      -46.71700000     -36.18850000     -69.44030000
H      -46.30590000     -34.48610000     -69.28430000
C      -45.91620000     -32.09970000     -70.22190000
H      -46.35080000     -32.37140000     -69.29590000
H      -45.11570000     -32.80740000     -70.27800000
C      -46.89270000     -32.33030000     -71.34100000
C      -47.50030000     -31.32510000     -72.13290000
C      -47.29720000     -33.66520000     -71.72730000
H      -47.46020000     -30.27880000     -72.06040000
C      -48.26040000     -33.60640000     -72.73530000
C      -47.20340000     -35.05550000     -71.21190000
C      -48.02150000     -35.94910000     -71.90310000
S      -48.57510000     -32.02950000     -73.39250000
S      -48.82890000     -35.11800000     -73.28350000
H      -48.35530000     -36.87070000     -71.61940000
