40
Properties=species:S:1:pos:R:3 #=T CELL(abcABC):=T 1.889726e+02=T 90.00000=T Traj:=T positionsangstrom=T Step:=T 0=T Bead:=T pbc="F F F"
C      -41.77020000     -34.81300000     -71.32830000
C      -42.09200000     -34.21990000     -70.09060000
C      -42.46830000     -32.86290000     -70.01310000
C      -42.50950000     -32.07120000     -71.13660000
C      -42.35110000     -32.69780000     -72.36430000
C      -41.89060000     -34.07110000     -72.48280000
H      -41.46790000     -35.85780000     -71.43670000
H      -42.55720000     -32.47640000     -69.03860000
H      -42.60210000     -32.09700000     -73.27180000
H      -41.92300000     -34.59850000     -73.43690000
C      -42.80810000     -30.54950000     -70.99140000
H      -42.17160000     -30.00330000     -71.64750000
H      -42.61190000     -30.36460000     -69.96100000
C      -42.17760000     -35.18260000     -68.94540000
H      -41.55420000     -36.03200000     -69.04900000
H      -41.91560000     -34.80690000     -67.89900000
S      -44.54580000     -30.07610000     -71.48270000
S      -43.89960000     -35.90250000     -68.82030000
C      -45.63640000     -30.57360000     -69.94880000
H      -44.94430000     -30.48110000     -69.08650000
H      -46.43550000     -29.81620000     -69.91140000
C      -44.77980000     -35.45560000     -70.33090000
H      -44.59640000     -36.07020000     -71.15910000
H      -44.45760000     -34.47700000     -70.67840000
C      -46.28230000     -35.46580000     -70.09410000
H      -46.49630000     -36.50580000     -69.85330000
H      -46.57980000     -34.89770000     -69.23670000
C      -46.16360000     -32.06590000     -70.12580000
H      -46.95100000     -32.13890000     -69.29370000
H      -45.31980000     -32.73970000     -69.88140000
C      -46.93640000     -32.32700000     -71.35080000
C      -47.47090000     -31.32820000     -72.17320000
C      -47.32290000     -33.63090000     -71.74100000
H      -47.42790000     -30.23830000     -72.11070000
C      -48.17040000     -33.61900000     -72.85130000
C      -47.04580000     -35.02660000     -71.29890000
C      -47.79310000     -35.93730000     -72.02360000
S      -48.38810000     -31.97820000     -73.52470000
S      -48.64410000     -35.19440000     -73.35570000
H      -47.83280000     -36.96280000     -71.94340000
