40
Properties=species:S:1:pos:R:3 #=T CELL(abcABC):=T 1.889726e+02=T 90.00000=T Traj:=T positionsangstrom=T Step:=T 0=T Bead:=T pbc="F F F"
C      -41.91590000     -34.66340000     -71.18830000
C      -42.36820000     -34.16760000     -69.95000000
C      -42.61230000     -32.79100000     -69.90230000
C      -42.49720000     -31.94870000     -70.99730000
C      -42.18070000     -32.51340000     -72.25810000
C      -41.86010000     -33.81890000     -72.33590000
H      -41.77770000     -35.73710000     -71.28210000
H      -42.92760000     -32.30240000     -68.92810000
H      -42.41160000     -31.89200000     -73.10170000
H      -41.58830000     -34.34460000     -73.25710000
C      -42.87810000     -30.49990000     -71.04310000
H      -42.16410000     -30.01930000     -71.71410000
H      -42.95860000     -29.99890000     -70.07400000
C      -42.42090000     -35.04910000     -68.72910000
H      -41.59020000     -35.79320000     -68.87920000
H      -42.19040000     -34.45470000     -67.82770000
S      -44.64460000     -30.28550000     -71.68490000
S      -44.15550000     -35.65750000     -68.37350000
C      -45.55240000     -30.54580000     -70.12040000
H      -44.91920000     -30.28210000     -69.31530000
H      -46.34370000     -29.74810000     -70.06120000
C      -44.94040000     -35.49960000     -70.06040000
H      -44.71830000     -36.40700000     -70.53170000
H      -44.55630000     -34.68640000     -70.60180000
C      -46.48340000     -35.41100000     -69.99040000
H      -46.81730000     -36.35810000     -69.56570000
H      -46.72370000     -34.68610000     -69.18650000
C      -46.36270000     -31.96140000     -70.04180000
H      -46.80000000     -31.89210000     -69.06860000
H      -45.63670000     -32.74170000     -69.80970000
C      -47.13540000     -32.33170000     -71.29200000
C      -47.61520000     -31.45420000     -72.24320000
C      -47.29650000     -33.69430000     -71.80140000
H      -47.54370000     -30.36810000     -72.17440000
C      -47.78210000     -33.71620000     -73.09100000
C      -47.10900000     -35.09560000     -71.33330000
C      -47.51840000     -36.04370000     -72.22170000
S      -48.33070000     -32.18490000     -73.66450000
S      -47.98210000     -35.33620000     -73.76320000
H      -47.53140000     -37.15190000     -72.12050000
