40
Properties=species:S:1:pos:R:3 #=T CELL(abcABC):=T 1.889726e+02=T 90.00000=T Traj:=T positionsangstrom=T Step:=T 0=T Bead:=T pbc="F F F"
C      -47.44290000     -33.34690000     -67.65450000
C      -46.67460000     -34.36250000     -68.26720000
C      -47.20370000     -34.84540000     -69.42340000
C      -48.42790000     -34.51730000     -69.99540000
C      -49.25430000     -33.65740000     -69.19890000
C      -48.75180000     -33.06530000     -68.05940000
H      -47.07270000     -32.85650000     -66.75300000
H      -46.71030000     -35.62440000     -70.03870000
H      -50.25630000     -33.44320000     -69.54570000
H      -49.40780000     -32.44230000     -67.48550000
C      -48.79460000     -34.81800000     -71.47970000
H      -48.88430000     -33.89120000     -72.08910000
H      -49.80580000     -35.30280000     -71.51520000
C      -45.41140000     -34.80270000     -67.65110000
H      -45.63140000     -35.18430000     -66.65110000
H      -44.94220000     -35.66280000     -68.18880000
S      -47.67450000     -35.94250000     -72.39270000
S      -44.14890000     -33.42930000     -67.75110000
C      -46.32140000     -34.90350000     -73.06910000
H      -45.39940000     -35.28860000     -72.73050000
H      -46.32770000     -34.99680000     -74.13410000
C      -44.22570000     -32.81720000     -69.47650000
H      -43.55550000     -32.00140000     -69.38780000
H      -45.17970000     -32.44050000     -69.79890000
C      -43.62230000     -33.77590000     -70.54420000
H      -42.83800000     -34.36710000     -70.03110000
H      -44.29660000     -34.49160000     -70.84770000
C      -46.39250000     -33.40350000     -72.65160000
H      -46.43790000     -33.38840000     -71.55160000
H      -47.29790000     -32.94540000     -73.05720000
C      -45.27720000     -32.60880000     -73.20770000
C      -45.43530000     -31.95310000     -74.44290000
C      -43.88010000     -32.51230000     -72.84380000
H      -46.36870000     -31.96710000     -74.97810000
C      -43.09680000     -31.86020000     -73.80030000
C      -43.12500000     -32.90450000     -71.69640000
C      -41.71420000     -32.67470000     -71.85130000
S      -43.95910000     -31.32550000     -75.20240000
S      -41.38200000     -31.83460000     -73.29580000
H      -40.93800000     -32.88120000     -71.10060000
