40
Properties=species:S:1:pos:R:3 #=T CELL(abcABC):=T 1.889726e+02=T 90.00000=T Traj:=T positionsangstrom=T Step:=T 0=T Bead:=T pbc="F F F"
C      -47.66410000     -33.38730000     -67.30950000
C      -46.76310000     -34.26250000     -67.99110000
C      -47.15080000     -34.65580000     -69.29740000
C      -48.35700000     -34.28490000     -69.85720000
C      -49.17910000     -33.42300000     -69.12650000
C      -48.90100000     -33.05060000     -67.83230000
H      -47.35210000     -33.09230000     -66.27570000
H      -46.53970000     -35.27690000     -69.93510000
H      -50.10610000     -33.12020000     -69.67000000
H      -49.54170000     -32.33400000     -67.32950000
C      -48.83890000     -34.61570000     -71.25850000
H      -48.94860000     -33.67820000     -71.81500000
H      -49.81780000     -35.08580000     -71.20100000
C      -45.45320000     -34.61530000     -67.38200000
H      -45.47080000     -34.65370000     -66.31470000
H      -44.98930000     -35.43620000     -67.83390000
S      -47.76770000     -35.75400000     -72.23730000
S      -44.24390000     -33.27100000     -67.87450000
C      -46.34160000     -34.77670000     -72.73040000
H      -45.38400000     -35.09220000     -72.20210000
H      -46.18720000     -35.13590000     -73.78130000
C      -44.25380000     -32.83990000     -69.63630000
H      -43.74110000     -31.80760000     -69.75210000
H      -45.23770000     -32.76050000     -70.00120000
C      -43.55570000     -33.83630000     -70.56500000
H      -42.70510000     -34.38390000     -70.00790000
H      -44.19420000     -34.70140000     -70.74220000
C      -46.42380000     -33.26350000     -72.73840000
H      -46.72620000     -32.92350000     -71.77120000
H      -47.30580000     -32.98800000     -73.41100000
C      -45.17680000     -32.64890000     -73.32460000
C      -45.38090000     -31.99950000     -74.56530000
C      -43.76640000     -32.71000000     -72.96900000
H      -46.37420000     -31.72630000     -74.95450000
C      -42.99560000     -32.07760000     -73.92280000
C      -43.02420000     -33.23240000     -71.86500000
C      -41.67880000     -32.95650000     -72.08370000
S      -43.89420000     -31.42120000     -75.33510000
S      -41.31140000     -32.21270000     -73.56160000
H      -40.79870000     -33.23090000     -71.45950000
