40
Properties=species:S:1:pos:R:3 #=T CELL(abcABC):=T 1.889726e+02=T 90.00000=T Traj:=T positionsangstrom=T Step:=T 0=T Bead:=T pbc="F F F"
C      -48.31860000     -33.96100000     -74.07310000
C      -47.18970000     -33.19040000     -74.36520000
C      -45.91390000     -33.74640000     -74.44470000
C      -45.78840000     -35.10260000     -74.25730000
C      -46.90810000     -35.89300000     -73.97320000
C      -48.20050000     -35.34710000     -73.85150000
H      -49.33360000     -33.49950000     -73.88120000
H      -45.11870000     -33.07000000     -74.44760000
H      -46.53380000     -36.89200000     -73.85630000
H      -49.04330000     -35.94110000     -73.79880000
C      -44.38410000     -35.69980000     -74.31300000
H      -43.64610000     -34.91160000     -74.67090000
H      -44.31060000     -36.51540000     -75.05480000
C      -47.30840000     -31.66630000     -74.34970000
H      -47.33540000     -31.29140000     -75.41370000
H      -48.12620000     -31.39620000     -73.76500000
S      -43.67240000     -36.48800000     -72.79880000
S      -45.85310000     -30.67590000     -73.65000000
C      -43.11200000     -35.06620000     -71.70520000
H      -42.62950000     -35.49310000     -70.89670000
H      -42.34670000     -34.50010000     -72.26260000
C      -45.96190000     -31.16570000     -71.81200000
H      -46.10910000     -32.26610000     -71.83960000
H      -46.87030000     -30.67990000     -71.37410000
C      -44.63060000     -30.80050000     -71.04550000
H      -43.83540000     -31.22280000     -71.66530000
H      -44.40110000     -29.75340000     -71.02340000
C      -44.22740000     -34.08000000     -71.33130000
H      -45.17040000     -34.37700000     -71.79480000
H      -44.02790000     -33.16900000     -71.87530000
C      -44.56510000     -33.92280000     -69.88520000
C      -44.66370000     -35.02690000     -69.05600000
C      -44.70370000     -32.69880000     -69.16860000
H      -44.31040000     -36.03350000     -69.29380000
C      -44.93120000     -32.89930000     -67.79000000
C      -44.66110000     -31.27750000     -69.59110000
C      -44.80640000     -30.45310000     -68.49120000
S      -44.79320000     -34.59360000     -67.32030000
S      -45.04880000     -31.36160000     -66.94160000
H      -45.03450000     -29.38570000     -68.53970000
