40
Properties=species:S:1:pos:R:3 #=T CELL(abcABC):=T 1.889726e+02=T 90.00000=T Traj:=T positionsangstrom=T Step:=T 0=T Bead:=T pbc="F F F"
C      -48.30500000     -33.39200000     -73.93910000
C      -47.08210000     -32.78810000     -74.14250000
C      -45.91010000     -33.49590000     -74.28040000
C      -45.91580000     -34.90560000     -74.28950000
C      -47.15130000     -35.56950000     -74.06810000
C      -48.36240000     -34.83410000     -73.97370000
H      -49.21080000     -32.84200000     -73.73560000
H      -44.89710000     -33.11870000     -74.20920000
H      -47.12130000     -36.64090000     -74.17630000
H      -49.25630000     -35.38120000     -73.68190000
C      -44.68190000     -35.78690000     -74.41930000
H      -43.75640000     -35.39210000     -74.81530000
H      -44.89660000     -36.55990000     -75.12830000
C      -47.05130000     -31.20380000     -74.22580000
H      -46.94810000     -30.94980000     -75.31700000
H      -47.99310000     -30.88390000     -73.79870000
S      -44.24940000     -36.65330000     -72.82390000
S      -45.55850000     -30.47910000     -73.47480000
C      -43.28670000     -35.25510000     -72.04650000
H      -42.67760000     -35.68040000     -71.24080000
H      -42.55950000     -34.94330000     -72.87470000
C      -45.78160000     -31.21510000     -71.83140000
H      -46.05300000     -32.26050000     -71.98110000
H      -46.67060000     -30.76090000     -71.33040000
C      -44.58440000     -30.83730000     -70.90060000
H      -43.63810000     -31.16320000     -71.35470000
H      -44.46000000     -29.74030000     -70.95610000
C      -43.94170000     -34.00790000     -71.49740000
H      -44.82720000     -33.76340000     -72.06550000
H      -43.34170000     -33.13660000     -71.74250000
C      -44.25410000     -34.07330000     -69.98910000
C      -44.24980000     -35.16520000     -69.16770000
C      -44.50380000     -32.85320000     -69.14440000
H      -43.95590000     -36.19520000     -69.38080000
C      -44.80020000     -33.16520000     -67.80560000
C      -44.62190000     -31.42470000     -69.50450000
C      -45.01580000     -30.70560000     -68.39470000
S      -44.73920000     -34.83680000     -67.45380000
S      -45.13300000     -31.68630000     -66.89720000
H      -45.21250000     -29.64600000     -68.20950000
