40
Properties=species:S:1:pos:R:3 #=T CELL(abcABC):=T 1.889726e+02=T 90.00000=T Traj:=T positionsangstrom=T Step:=T 0=T Bead:=T pbc="F F F"
C      -42.07400000     -32.80170000     -70.24770000
C      -42.89520000     -33.26320000     -69.13080000
C      -44.06140000     -32.54200000     -68.85400000
C      -44.56300000     -31.47520000     -69.67390000
C      -43.83540000     -31.23870000     -70.84750000
C      -42.57850000     -31.88250000     -71.09750000
H      -41.18820000     -33.43900000     -70.60200000
H      -44.58130000     -32.92440000     -67.94790000
H      -44.16750000     -30.59530000     -71.60990000
H      -42.12090000     -31.67300000     -72.07130000
C      -45.82380000     -30.73920000     -69.22530000
H      -45.46710000     -29.76920000     -68.78940000
H      -46.30960000     -31.24860000     -68.43150000
C      -42.56230000     -34.45320000     -68.22680000
H      -41.50910000     -34.74480000     -68.49590000
H      -42.57170000     -34.14080000     -67.14760000
S      -46.99750000     -30.15370000     -70.52980000
S      -43.68700000     -35.94170000     -68.40060000
C      -48.29130000     -31.46870000     -70.40600000
H      -48.72150000     -31.57580000     -69.42010000
H      -49.08530000     -31.31120000     -71.15960000
C      -43.88440000     -36.03330000     -70.22140000
H      -43.94350000     -37.12470000     -70.51660000
H      -43.02360000     -35.55390000     -70.67760000
C      -45.22050000     -35.33220000     -70.63420000
H      -46.09800000     -35.87080000     -70.20870000
H      -45.40120000     -34.32480000     -70.17620000
C      -47.68080000     -32.88270000     -70.70580000
H      -48.36390000     -33.65420000     -70.43820000
H      -46.85590000     -33.16970000     -70.05780000
C      -47.23370000     -33.05380000     -72.19280000
C      -47.81360000     -32.43190000     -73.22370000
C      -46.28020000     -34.07790000     -72.63470000
H      -48.59560000     -31.70960000     -73.12470000
C      -46.32060000     -34.21880000     -74.02860000
C      -45.39380000     -35.03460000     -72.05330000
C      -44.66730000     -35.76200000     -72.98550000
S      -47.17760000     -32.93210000     -74.82730000
S      -45.10800000     -35.36170000     -74.67970000
H      -43.94440000     -36.55920000     -72.70020000
