40
Properties=species:S:1:pos:R:3 #=T CELL(abcABC):=T 1.889726e+02=T 90.00000=T Traj:=T positionsangstrom=T Step:=T 0=T Bead:=T pbc="F F F"
C      -42.42020000     -33.58090000     -71.02430000
C      -42.95180000     -33.48760000     -69.69160000
C      -43.89510000     -32.48410000     -69.37540000
C      -44.36290000     -31.60820000     -70.34350000
C      -43.90360000     -31.75090000     -71.65980000
C      -43.03590000     -32.81200000     -72.00620000
H      -41.76860000     -34.36590000     -71.34330000
H      -44.17500000     -32.39890000     -68.27590000
H      -44.49770000     -31.37230000     -72.47930000
H      -42.68330000     -32.87690000     -73.06130000
C      -45.11170000     -30.43880000     -69.90090000
H      -44.52770000     -29.49330000     -70.01210000
H      -45.30080000     -30.53080000     -68.85270000
C      -42.44520000     -34.47040000     -68.64080000
H      -41.51170000     -34.95390000     -68.82030000
H      -42.20740000     -33.95240000     -67.69960000
S      -46.72330000     -30.06070000     -70.79650000
S      -43.59730000     -35.81610000     -68.11930000
C      -47.91590000     -31.33790000     -70.07030000
H      -48.03240000     -31.11050000     -69.00830000
H      -48.86710000     -31.24290000     -70.50860000
C      -44.32710000     -36.40160000     -69.74510000
H      -44.52530000     -37.49970000     -69.52450000
H      -43.41410000     -36.49530000     -70.33820000
C      -45.48840000     -35.54640000     -70.29180000
H      -46.40700000     -36.13750000     -70.15220000
H      -45.63690000     -34.65090000     -69.65350000
C      -47.57650000     -32.81380000     -70.34340000
H      -48.44560000     -33.43750000     -69.95910000
H      -46.70980000     -33.12030000     -69.72930000
C      -47.30340000     -33.02810000     -71.79700000
C      -48.06020000     -32.44590000     -72.77220000
C      -46.40560000     -34.00710000     -72.31610000
H      -48.84620000     -31.72210000     -72.64840000
C      -46.25940000     -33.90860000     -73.71070000
C      -45.48410000     -35.00890000     -71.71680000
C      -44.75910000     -35.54490000     -72.76770000
S      -47.40900000     -32.77320000     -74.37180000
S      -45.05550000     -34.92220000     -74.44610000
H      -44.00500000     -36.36340000     -72.64180000
