40
Properties=species:S:1:pos:R:3 #=T CELL(abcABC):=T 1.889726e+02=T 90.00000=T Traj:=T positionsangstrom=T Step:=T 0=T Bead:=T pbc="F F F"
C      -42.66290000     -33.71210000     -71.32280000
C      -42.91600000     -33.59410000     -69.91060000
C      -43.58940000     -32.50680000     -69.45140000
C      -44.14340000     -31.52020000     -70.33190000
C      -43.86370000     -31.64230000     -71.68520000
C      -43.02960000     -32.68160000     -72.14230000
H      -42.10700000     -34.60410000     -71.57600000
H      -43.72900000     -32.41940000     -68.37730000
H      -44.23010000     -30.95170000     -72.43620000
H      -43.05010000     -32.93250000     -73.16660000
C      -44.91040000     -30.34510000     -69.88140000
H      -44.35270000     -29.42240000     -70.04710000
H      -45.14870000     -30.41050000     -68.77950000
C      -42.43170000     -34.60120000     -68.87510000
H      -41.68740000     -35.20270000     -69.39420000
H      -42.07320000     -34.09950000     -67.99880000
S      -46.42990000     -30.08070000     -70.85690000
S      -43.72150000     -35.79790000     -68.15690000
C      -47.70530000     -31.11480000     -70.05980000
H      -47.61550000     -30.98120000     -69.04370000
H      -48.61780000     -30.68040000     -70.47470000
C      -44.53580000     -36.34790000     -69.71800000
H      -44.88550000     -37.38460000     -69.67930000
H      -43.79090000     -36.22740000     -70.56190000
C      -45.74130000     -35.42600000     -70.08200000
H      -46.73780000     -35.90510000     -69.80830000
H      -45.77730000     -34.51050000     -69.52950000
C      -47.67610000     -32.60540000     -70.35840000
H      -48.62890000     -32.98310000     -69.94380000
H      -46.91050000     -33.02930000     -69.66680000
C      -47.35450000     -32.96180000     -71.76640000
C      -47.79220000     -32.16430000     -72.80920000
C      -46.54620000     -34.07650000     -72.23840000
H      -48.40180000     -31.27460000     -72.70970000
C      -46.37660000     -34.04160000     -73.64930000
C      -45.80790000     -35.13840000     -71.59230000
C      -45.16200000     -35.88960000     -72.57460000
S      -47.14440000     -32.59380000     -74.33190000
S      -45.27060000     -35.28220000     -74.25620000
H      -44.35440000     -36.56240000     -72.41990000
