40
Properties=species:S:1:pos:R:3 #=T CELL(abcABC):=T 1.889726e+02=T 90.00000=T Traj:=T positionsangstrom=T Step:=T 0=T Bead:=T pbc="F F F"
C      -42.44500000     -33.29760000     -70.73540000
C      -42.92110000     -33.33080000     -69.43540000
C      -43.81470000     -32.26650000     -68.97100000
C      -44.35670000     -31.40980000     -69.89420000
C      -43.95270000     -31.49090000     -71.25990000
C      -42.99480000     -32.37340000     -71.68720000
H      -41.66950000     -33.88980000     -71.17110000
H      -44.19470000     -32.21820000     -67.99740000
H      -44.35140000     -30.78090000     -72.00150000
H      -42.69880000     -32.38190000     -72.71560000
C      -45.37020000     -30.37210000     -69.42050000
H      -44.90940000     -29.39060000     -69.37330000
H      -45.80510000     -30.60140000     -68.40190000
C      -42.41250000     -34.34670000     -68.52320000
H      -41.47020000     -34.78010000     -68.85030000
H      -42.21680000     -33.94060000     -67.55580000
S      -46.79910000     -30.28640000     -70.66980000
S      -43.61250000     -35.81480000     -68.24320000
C      -47.97560000     -31.58000000     -70.13120000
H      -48.15920000     -31.51980000     -69.04650000
H      -48.93380000     -31.24210000     -70.56790000
C      -44.20950000     -36.35760000     -69.93960000
H      -44.52900000     -37.40220000     -69.66760000
H      -43.41720000     -36.40120000     -70.76600000
C      -45.33600000     -35.38230000     -70.40190000
H      -46.31470000     -35.77700000     -69.99940000
H      -45.11030000     -34.40130000     -70.01270000
C      -47.66060000     -33.01740000     -70.48760000
H      -48.50310000     -33.64160000     -70.24640000
H      -46.79880000     -33.20280000     -69.82520000
C      -47.38560000     -33.18030000     -72.00740000
C      -48.00250000     -32.45050000     -72.98030000
C      -46.25090000     -33.96550000     -72.51780000
H      -48.82510000     -31.75380000     -72.85680000
C      -46.18700000     -33.91670000     -73.90460000
C      -45.51310000     -35.04740000     -71.91780000
C      -44.75080000     -35.67220000     -72.91060000
S      -47.34210000     -32.84930000     -74.64390000
S      -45.08170000     -35.14040000     -74.59710000
H      -44.04550000     -36.42260000     -72.76020000
