40
Properties=species:S:1:pos:R:3 #=T CELL(abcABC):=T 1.889726e+02=T 90.00000=T Traj:=T positionsangstrom=T Step:=T 0=T Bead:=T pbc="F F F"
C      -45.17780000     -29.61900000     -72.38550000
C      -44.57140000     -30.54710000     -73.21690000
C      -43.46000000     -31.31860000     -72.77550000
C      -42.92130000     -31.10530000     -71.46860000
C      -43.52470000     -30.18010000     -70.64870000
C      -44.72760000     -29.52260000     -71.09640000
H      -46.06830000     -29.10300000     -72.75620000
H      -42.97190000     -32.02350000     -73.41120000
H      -43.23040000     -30.13670000     -69.61000000
H      -45.31990000     -28.89730000     -70.49540000
C      -41.70610000     -31.90280000     -70.97980000
H      -40.74030000     -31.33920000     -70.89050000
H      -41.33140000     -32.55980000     -71.77850000
C      -44.97170000     -30.65620000     -74.64590000
H      -45.44450000     -29.72330000     -75.01860000
H      -44.11800000     -30.90650000     -75.26600000
S      -41.83170000     -32.60800000     -69.26890000
S      -46.31810000     -31.94330000     -74.89850000
C      -42.96280000     -34.02680000     -69.34980000
H      -42.54520000     -34.94230000     -69.92420000
H      -42.95100000     -34.41640000     -68.28200000
C      -46.35100000     -33.33470000     -73.71590000
H      -45.31640000     -33.64890000     -73.66160000
H      -46.79760000     -34.10700000     -74.24890000
C      -46.85430000     -33.02850000     -72.26000000
H      -46.06940000     -32.46270000     -71.76910000
H      -47.74600000     -32.36990000     -72.34900000
C      -44.36510000     -33.70540000     -69.88050000
H      -44.25860000     -33.39530000     -70.89670000
H      -44.85800000     -32.84340000     -69.46760000
C      -45.34980000     -34.86830000     -69.75290000
C      -45.06280000     -35.92830000     -68.91530000
C      -46.53510000     -35.02430000     -70.59000000
H      -44.34700000     -36.12910000     -68.16400000
C      -47.22490000     -36.16580000     -70.17550000
C      -47.23330000     -34.34230000     -71.63710000
C      -48.39980000     -34.94350000     -71.94850000
S      -46.44780000     -37.03050000     -68.88600000
S      -48.56500000     -36.47550000     -71.14000000
H      -49.09610000     -34.64520000     -72.72720000
