40
Properties=species:S:1:pos:R:3 #=T CELL(abcABC):=T 1.889726e+02=T 90.00000=T Traj:=T positionsangstrom=T Step:=T 0=T Bead:=T pbc="F F F"
C      -45.19380000     -29.93840000     -72.16340000
C      -44.41640000     -30.61700000     -73.10900000
C      -43.30100000     -31.37810000     -72.72100000
C      -42.88460000     -31.30020000     -71.39030000
C      -43.56930000     -30.50360000     -70.45750000
C      -44.70500000     -29.83740000     -70.80700000
H      -46.04970000     -29.29650000     -72.39900000
H      -42.78510000     -31.92140000     -73.52550000
H      -43.16260000     -30.43920000     -69.45230000
H      -45.20960000     -29.30450000     -70.07110000
C      -41.67480000     -32.16130000     -71.13130000
H      -40.83080000     -31.49230000     -70.94370000
H      -41.70500000     -32.86140000     -71.89480000
C      -44.93080000     -30.81350000     -74.51390000
H      -44.68340000     -30.05110000     -75.20700000
H      -44.42050000     -31.67290000     -74.88810000
S      -41.54650000     -32.99460000     -69.41670000
S      -46.72230000     -31.00680000     -74.53210000
C      -42.76960000     -34.32510000     -69.61860000
H      -42.37950000     -35.02180000     -70.40090000
H      -42.82100000     -34.78980000     -68.62290000
C      -47.09860000     -32.72500000     -73.71580000
H      -46.98910000     -33.39730000     -74.61460000
H      -48.11220000     -32.60950000     -73.43390000
C      -46.32390000     -33.17140000     -72.54200000
H      -45.32930000     -33.48640000     -72.93380000
H      -46.22800000     -32.40120000     -71.82530000
C      -44.18000000     -33.88450000     -70.00970000
H      -44.24820000     -33.49480000     -71.10610000
H      -44.50140000     -33.13750000     -69.23900000
C      -45.20860000     -35.01020000     -69.88790000
C      -45.20260000     -35.87910000     -68.84260000
C      -46.43790000     -35.13880000     -70.69220000
H      -44.63750000     -35.91730000     -67.95970000
C      -47.24850000     -36.14880000     -70.24670000
C      -46.96980000     -34.42150000     -71.86340000
C      -48.17890000     -34.98610000     -72.23200000
S      -46.69160000     -36.87840000     -68.75520000
S      -48.62570000     -36.34680000     -71.27430000
H      -48.81530000     -34.70650000     -73.06220000
