40
Properties=species:S:1:pos:R:3 #=T CELL(abcABC):=T 1.889726e+02=T 90.00000=T Traj:=T positionsangstrom=T Step:=T 0=T Bead:=T pbc="F F F"
C      -42.60130000     -32.61730000     -70.06290000
C      -43.35530000     -33.09640000     -69.01730000
C      -44.51580000     -32.44190000     -68.55460000
C      -44.86160000     -31.18610000     -69.11080000
C      -44.02720000     -30.64490000     -70.13900000
C      -42.92560000     -31.33290000     -70.63050000
H      -41.68920000     -33.12220000     -70.53420000
H      -45.03810000     -33.01010000     -67.74970000
H      -44.36110000     -29.69850000     -70.56710000
H      -42.36860000     -30.87090000     -71.52340000
C      -46.09630000     -30.37790000     -68.79750000
H      -45.79840000     -29.39940000     -68.54120000
H      -46.65370000     -30.78710000     -67.98890000
C      -42.88870000     -34.31470000     -68.14930000
H      -41.82280000     -34.44770000     -68.47540000
H      -42.92440000     -33.99080000     -67.07450000
S      -47.11920000     -30.07190000     -70.27980000
S      -43.78620000     -35.89270000     -68.37370000
C      -48.07720000     -31.61710000     -70.70410000
H      -48.98320000     -31.71760000     -70.10470000
H      -48.61620000     -31.36030000     -71.61140000
C      -43.89010000     -36.10980000     -70.25060000
H      -43.93010000     -37.22040000     -70.30910000
H      -42.99340000     -35.72160000     -70.68120000
C      -45.08900000     -35.32950000     -70.73910000
H      -45.93630000     -35.84930000     -70.22800000
H      -45.09150000     -34.31080000     -70.43400000
C      -47.23580000     -32.89060000     -71.02880000
H      -47.66020000     -33.75440000     -70.49310000
H      -46.26130000     -32.78580000     -70.50340000
C      -46.92110000     -33.15170000     -72.48720000
C      -47.32630000     -32.46250000     -73.58940000
C      -46.11970000     -34.30350000     -72.90010000
H      -47.85270000     -31.55910000     -73.53500000
C      -45.93870000     -34.34740000     -74.30760000
C      -45.32480000     -35.32490000     -72.24020000
C      -44.59150000     -36.10620000     -73.15680000
S      -46.88510000     -33.23090000     -75.17780000
S      -44.95820000     -35.67570000     -74.81390000
H      -43.78420000     -36.79530000     -72.84910000
