40
Properties=species:S:1:pos:R:3 #=T CELL(abcABC):=T 1.889726e+02=T 90.00000=T Traj:=T positionsangstrom=T Step:=T 0=T Bead:=T pbc="F F F"
C      -45.26040000     -30.16450000     -72.04260000
C      -44.45080000     -30.84250000     -73.02290000
C      -43.33130000     -31.50380000     -72.62610000
C      -42.83490000     -31.32830000     -71.35640000
C      -43.42040000     -30.42590000     -70.47370000
C      -44.68950000     -29.92270000     -70.80620000
H      -46.14070000     -29.59930000     -72.29510000
H      -42.62190000     -31.95720000     -73.32020000
H      -43.06230000     -30.29730000     -69.45470000
H      -45.17200000     -29.29900000     -70.04750000
C      -41.53360000     -32.05460000     -71.01730000
H      -40.68190000     -31.36100000     -71.17890000
H      -41.31520000     -32.96060000     -71.66950000
C      -44.88900000     -30.75610000     -74.43980000
H      -44.95500000     -29.71260000     -74.81960000
H      -44.30370000     -31.37750000     -75.10380000
S      -41.58560000     -32.86060000     -69.35310000
S      -46.64880000     -31.35170000     -74.72430000
C      -42.98650000     -34.07690000     -69.34070000
H      -42.73810000     -35.07870000     -69.77820000
H      -43.14640000     -34.18270000     -68.25000000
C      -46.55370000     -33.03590000     -74.00770000
H      -45.66390000     -33.60440000     -74.16580000
H      -47.42410000     -33.59640000     -74.49260000
C      -46.77480000     -32.97820000     -72.49210000
H      -45.84610000     -32.64460000     -71.95730000
H      -47.52110000     -32.21420000     -72.22840000
C      -44.26770000     -33.61020000     -69.93950000
H      -44.12000000     -33.54630000     -70.97380000
H      -44.67300000     -32.67360000     -69.54160000
C      -45.35810000     -34.74650000     -69.79780000
C      -45.22720000     -35.72090000     -68.84160000
C      -46.46130000     -35.01220000     -70.74960000
H      -44.46030000     -35.65800000     -68.04590000
C      -47.19620000     -36.17090000     -70.36180000
C      -47.16780000     -34.33850000     -71.84240000
C      -48.32290000     -34.93950000     -72.21110000
S      -46.57780000     -36.87940000     -68.89000000
S      -48.61370000     -36.41770000     -71.26670000
H      -49.01290000     -34.53520000     -72.96930000
