40
Properties=species:S:1:pos:R:3 #=T CELL(abcABC):=T 1.889726e+02=T 90.00000=T Traj:=T positionsangstrom=T Step:=T 0=T Bead:=T pbc="F F F"
C      -44.62420000     -30.12480000     -74.12220000
C      -44.21090000     -31.42440000     -73.85190000
C      -43.49450000     -31.65910000     -72.62160000
C      -43.49480000     -30.72550000     -71.60490000
C      -44.13720000     -29.49470000     -71.86610000
C      -44.72040000     -29.15210000     -73.09650000
H      -45.02670000     -29.89700000     -75.12180000
H      -43.11280000     -32.66580000     -72.49310000
H      -44.08480000     -28.76930000     -71.09180000
H      -45.08530000     -28.13610000     -73.34670000
C      -42.61390000     -30.86600000     -70.30470000
H      -41.64510000     -30.18100000     -70.26520000
H      -42.15500000     -31.82940000     -70.25550000
C      -44.31120000     -32.56770000     -74.90760000
H      -43.78500000     -32.33440000     -75.79370000
H      -43.97700000     -33.50530000     -74.57020000
S      -43.68490000     -30.64480000     -68.86150000
S      -46.06020000     -32.77420000     -75.27040000
C      -44.16390000     -32.38850000     -68.55990000
H      -43.56120000     -33.00920000     -67.98720000
H      -45.07040000     -32.21080000     -67.95540000
C      -46.42650000     -34.22540000     -74.11480000
H      -45.90960000     -35.09860000     -74.49720000
H      -47.45340000     -34.39070000     -74.26310000
C      -46.02480000     -34.02840000     -72.61570000
H      -44.97320000     -34.24030000     -72.61400000
H      -46.26680000     -33.01550000     -72.29870000
C      -44.54700000     -33.16630000     -69.83810000
H      -43.65440000     -33.41050000     -70.40840000
H      -45.10810000     -32.63390000     -70.61320000
C      -45.20420000     -34.48580000     -69.42910000
C      -45.07250000     -35.12940000     -68.20460000
C      -46.14840000     -35.25140000     -70.32060000
H      -44.32630000     -34.95410000     -67.42150000
C      -46.73210000     -36.29160000     -69.66070000
C      -46.61470000     -35.10220000     -71.67180000
C      -47.45690000     -36.14660000     -71.98760000
S      -46.04720000     -36.62670000     -68.08400000
S      -47.89590000     -37.16960000     -70.62780000
H      -47.98760000     -36.19500000     -72.90690000
