40
Properties=species:S:1:pos:R:3 #=T CELL(abcABC):=T 1.889726e+02=T 90.00000=T Traj:=T positionsangstrom=T Step:=T 0=T Bead:=T pbc="F F F"
C      -45.08390000     -30.20660000     -73.76280000
C      -44.37220000     -31.39220000     -73.55890000
C      -43.59050000     -31.46440000     -72.39050000
C      -43.35190000     -30.42710000     -71.48320000
C      -44.06400000     -29.21230000     -71.68290000
C      -44.94680000     -29.18820000     -72.75360000
H      -45.83080000     -30.07040000     -74.52190000
H      -43.12810000     -32.41600000     -72.24920000
H      -44.01280000     -28.47720000     -70.92800000
H      -45.52430000     -28.24430000     -72.90150000
C      -42.41360000     -30.67580000     -70.38500000
H      -41.68010000     -29.91720000     -70.30360000
H      -41.77020000     -31.52860000     -70.56740000
C      -44.21480000     -32.50180000     -74.56360000
H      -43.48900000     -32.22210000     -75.34680000
H      -43.80770000     -33.42820000     -74.10940000
S      -43.36150000     -30.91550000     -68.83030000
S      -45.81910000     -32.90980000     -75.37770000
C      -43.55280000     -32.72970000     -68.79490000
H      -42.55400000     -33.14160000     -68.93860000
H      -43.88350000     -32.97340000     -67.73370000
C      -46.47370000     -34.19570000     -74.14930000
H      -46.03310000     -35.19750000     -74.40690000
H      -47.62240000     -34.36490000     -74.26240000
C      -46.26280000     -33.79520000     -72.69310000
H      -45.23680000     -33.60350000     -72.42510000
H      -46.99010000     -32.96570000     -72.46230000
C      -44.49830000     -33.29880000     -69.81240000
H      -43.98690000     -33.28230000     -70.77400000
H      -45.29970000     -32.51550000     -70.00850000
C      -45.15820000     -34.68910000     -69.56190000
C      -44.98170000     -35.42710000     -68.39550000
C      -46.16800000     -35.25840000     -70.40160000
H      -44.46960000     -35.14590000     -67.51110000
C      -46.77660000     -36.43110000     -69.86070000
C      -46.78850000     -34.85340000     -71.65630000
C      -47.90990000     -35.66430000     -71.92140000
S      -46.05030000     -36.89780000     -68.36990000
S      -48.20860000     -36.84100000     -70.67280000
H      -48.51130000     -35.64230000     -72.82820000
