40
Properties=species:S:1:pos:R:3 #=T CELL(abcABC):=T 1.889726e+02=T 90.00000=T Traj:=T positionsangstrom=T Step:=T 0=T Bead:=T pbc="F F F"
C      -43.27100000     -31.84370000     -67.89000000
C      -44.26860000     -32.84540000     -67.88450000
C      -45.52120000     -32.57020000     -68.43250000
C      -45.73980000     -31.44820000     -69.19170000
C      -44.68840000     -30.52300000     -69.37710000
C      -43.54020000     -30.66180000     -68.60360000
H      -42.29760000     -31.96810000     -67.43280000
H      -46.30060000     -33.32290000     -68.23720000
H      -44.86680000     -29.66660000     -70.01180000
H      -42.76160000     -29.85060000     -68.68240000
C      -47.04310000     -31.37230000     -69.89080000
H      -47.64960000     -30.51800000     -69.59560000
H      -47.63110000     -32.19440000     -69.47730000
C      -44.04580000     -34.09510000     -67.11470000
H      -42.99160000     -34.22630000     -66.68560000
H      -44.66010000     -34.01830000     -66.17030000
S      -47.05590000     -31.28890000     -71.78710000
S      -44.60290000     -35.62350000     -67.93950000
C      -48.41060000     -32.40290000     -72.18970000
H      -49.23220000     -32.25950000     -71.47900000
H      -48.78640000     -31.94430000     -73.13260000
C      -44.12460000     -35.35200000     -69.67640000
H      -43.60450000     -36.15930000     -70.16940000
H      -43.47540000     -34.49530000     -69.67700000
C      -45.33470000     -34.98140000     -70.58980000
H      -46.01650000     -35.80480000     -70.60740000
H      -45.82820000     -34.09260000     -70.18480000
C      -48.03710000     -33.82410000     -72.40380000
H      -48.89900000     -34.42500000     -72.70890000
H      -47.77980000     -34.24100000     -71.45290000
C      -46.95050000     -33.91730000     -73.45920000
C      -47.22180000     -33.65540000     -74.81570000
C      -45.59000000     -34.28410000     -73.18620000
H      -48.16140000     -33.41930000     -75.20780000
C      -44.82950000     -34.11750000     -74.32380000
C      -44.75530000     -34.68540000     -72.02350000
C      -43.43730000     -34.81500000     -72.39490000
S      -45.70840000     -33.66050000     -75.79580000
S      -43.12980000     -34.34850000     -74.04070000
H      -42.59770000     -35.30220000     -71.89900000
