40
Properties=species:S:1:pos:R:3 #=T CELL(abcABC):=T 1.889726e+02=T 90.00000=T Traj:=T positionsangstrom=T Step:=T 0=T Bead:=T pbc="F F F"
C      -44.27060000     -30.46820000     -74.57760000
C      -43.86090000     -31.66090000     -73.90650000
C      -43.37930000     -31.54350000     -72.62020000
C      -43.26880000     -30.33700000     -71.95740000
C      -43.80480000     -29.19340000     -72.55090000
C      -44.27360000     -29.26220000     -73.87750000
H      -44.76230000     -30.54400000     -75.50600000
H      -43.01690000     -32.43230000     -72.02660000
H      -43.72550000     -28.20030000     -72.07480000
H      -44.81460000     -28.41440000     -74.24960000
C      -43.02960000     -30.18940000     -70.51170000
H      -42.54040000     -29.37970000     -70.19520000
H      -42.43580000     -31.06000000     -70.14770000
C      -44.05650000     -32.90390000     -74.69510000
H      -43.64750000     -32.77900000     -75.74400000
H      -43.74210000     -33.79750000     -74.20790000
S      -44.59370000     -30.27240000     -69.46330000
S      -45.97560000     -33.18020000     -75.10970000
C      -44.64510000     -32.12220000     -69.08180000
H      -43.82340000     -32.65980000     -69.64330000
H      -44.38760000     -32.11890000     -67.96880000
C      -46.52720000     -34.43560000     -73.82130000
H      -46.07100000     -35.33870000     -74.06970000
H      -47.54500000     -34.51280000     -74.00920000
C      -46.22450000     -34.00630000     -72.35610000
H      -45.23300000     -33.60630000     -72.25470000
H      -46.88850000     -33.24990000     -72.02200000
C      -46.05750000     -32.67190000     -69.33430000
H      -46.48300000     -32.39710000     -70.33650000
H      -46.69010000     -32.24490000     -68.60880000
C      -46.06650000     -34.14740000     -69.00350000
C      -45.86710000     -34.69690000     -67.71450000
C      -46.40480000     -35.18560000     -69.95760000
H      -45.74770000     -34.32590000     -66.66090000
C      -46.41080000     -36.49930000     -69.40620000
C      -46.37550000     -35.23430000     -71.42160000
C      -46.57900000     -36.51570000     -71.89370000
S      -45.98160000     -36.49890000     -67.72660000
S      -46.56360000     -37.78120000     -70.61730000
H      -46.72500000     -36.73520000     -72.93320000
