40
Properties=species:S:1:pos:R:3 #=T CELL(abcABC):=T 1.889726e+02=T 90.00000=T Traj:=T positionsangstrom=T Step:=T 0=T Bead:=T pbc="F F F"
C      -44.34930000     -30.26890000     -74.43350000
C      -44.08240000     -31.53130000     -73.94610000
C      -43.61350000     -31.66180000     -72.62390000
C      -43.49630000     -30.47900000     -71.78830000
C      -43.86770000     -29.23650000     -72.32310000
C      -44.29800000     -29.10610000     -73.63310000
H      -44.63230000     -30.22610000     -75.50200000
H      -43.28950000     -32.61410000     -72.37200000
H      -43.80040000     -28.34080000     -71.79310000
H      -44.37880000     -28.16310000     -74.12810000
C      -42.90330000     -30.53830000     -70.44220000
H      -42.18410000     -29.61080000     -70.40700000
H      -42.28300000     -31.35200000     -70.29910000
C      -44.23420000     -32.68850000     -74.85150000
H      -43.95270000     -32.37280000     -75.85660000
H      -43.62090000     -33.55580000     -74.57880000
S      -44.02550000     -30.37920000     -69.02340000
S      -46.03970000     -33.14010000     -75.14190000
C      -44.46400000     -32.27910000     -68.75770000
H      -43.70610000     -32.92630000     -69.28740000
H      -44.50570000     -32.46300000     -67.64340000
C      -46.40400000     -34.57590000     -74.01130000
H      -45.60420000     -35.20810000     -73.97560000
H      -47.18120000     -35.13970000     -74.49420000
C      -46.74060000     -34.09650000     -72.59550000
H      -46.12630000     -33.26590000     -72.32290000
H      -47.73330000     -33.75000000     -72.59240000
C      -45.72380000     -32.63510000     -69.43870000
H      -45.70330000     -32.45900000     -70.47570000
H      -46.62280000     -32.06720000     -69.07640000
C      -45.95100000     -34.11650000     -69.18650000
C      -45.91000000     -34.65050000     -67.92100000
C      -46.16420000     -35.16860000     -70.17610000
H      -45.72530000     -34.12750000     -66.99810000
C      -46.20890000     -36.42330000     -69.60280000
C      -46.57210000     -35.22720000     -71.57170000
C      -46.93920000     -36.50660000     -71.91400000
S      -45.95440000     -36.41640000     -67.89850000
S      -46.78620000     -37.72840000     -70.59340000
H      -47.27620000     -36.95460000     -72.80830000
