40
Properties=species:S:1:pos:R:3 #=T CELL(abcABC):=T 1.889726e+02=T 90.00000=T Traj:=T positionsangstrom=T Step:=T 0=T Bead:=T pbc="F F F"
C      -44.12420000     -30.26750000     -75.38610000
C      -44.22900000     -31.44030000     -74.70290000
C      -44.11240000     -31.37500000     -73.28390000
C      -43.82380000     -30.19460000     -72.58990000
C      -43.76480000     -29.02400000     -73.34040000
C      -43.86850000     -29.06600000     -74.70810000
H      -44.25610000     -30.39160000     -76.50470000
H      -44.12130000     -32.31900000     -72.74710000
H      -43.62860000     -28.04730000     -72.82480000
H      -43.92340000     -28.18930000     -75.33250000
C      -43.66620000     -30.27560000     -71.08100000
H      -43.09840000     -29.35670000     -70.69140000
H      -43.04720000     -31.12850000     -70.78990000
C      -44.51140000     -32.78560000     -75.38760000
H      -44.71770000     -32.66250000     -76.45930000
H      -43.63380000     -33.39120000     -75.33240000
S      -45.31490000     -30.34920000     -70.25860000
S      -45.90260000     -33.73900000     -74.83370000
C      -45.23910000     -31.98740000     -69.35540000
H      -44.47960000     -32.65690000     -69.75470000
H      -44.89040000     -31.83910000     -68.35470000
C      -45.42630000     -34.91870000     -73.46650000
H      -44.31250000     -35.13510000     -73.55480000
H      -45.88880000     -35.87670000     -73.68680000
C      -45.80550000     -34.34570000     -72.10950000
H      -45.06050000     -33.60050000     -71.82420000
H      -46.77820000     -33.97390000     -72.13180000
C      -46.62790000     -32.63490000     -69.28660000
H      -47.22260000     -32.60630000     -70.20800000
H      -47.18410000     -32.01960000     -68.65150000
C      -46.52690000     -34.04870000     -68.72350000
C      -46.62400000     -34.45820000     -67.38740000
C      -46.15400000     -35.15560000     -69.58960000
H      -47.13800000     -33.95640000     -66.61900000
C      -45.94940000     -36.31120000     -68.79660000
C      -45.71470000     -35.42790000     -70.93690000
C      -45.32470000     -36.75760000     -71.10820000
S      -46.31660000     -36.18840000     -67.06110000
S      -45.42930000     -37.66060000     -69.65500000
H      -45.05310000     -37.27670000     -72.03100000
