40
Properties=species:S:1:pos:R:3 #=T CELL(abcABC):=T 1.889726e+02=T 90.00000=T Traj:=T positionsangstrom=T Step:=T 0=T Bead:=T pbc="F F F"
C      -44.08920000     -30.58120000     -75.37420000
C      -44.07000000     -31.71110000     -74.51210000
C      -43.93750000     -31.49070000     -73.12630000
C      -43.83010000     -30.20420000     -72.65690000
C      -43.95290000     -29.11770000     -73.50420000
C      -44.08600000     -29.28460000     -74.86690000
H      -44.16110000     -30.66100000     -76.44940000
H      -43.95870000     -32.28540000     -72.35670000
H      -43.93450000     -28.18580000     -72.96100000
H      -44.11490000     -28.46460000     -75.59820000
C      -43.72590000     -29.93820000     -71.18900000
H      -43.40220000     -28.93100000     -70.94310000
H      -43.13430000     -30.74700000     -70.59160000
C      -44.27220000     -33.11460000     -75.02170000
H      -44.11760000     -33.15850000     -76.09430000
H      -43.64190000     -33.93400000     -74.56660000
S      -45.39610000     -30.18920000     -70.31890000
S      -46.13800000     -33.71460000     -74.71450000
C      -45.16340000     -31.94300000     -69.75360000
H      -44.52550000     -32.42310000     -70.46110000
H      -44.58440000     -31.72550000     -68.83530000
C      -45.67660000     -35.12880000     -73.52940000
H      -44.66020000     -35.33670000     -73.56790000
H      -46.29900000     -35.97970000     -73.89970000
C      -45.97610000     -34.52950000     -72.12670000
H      -45.34650000     -33.65710000     -71.98970000
H      -47.00380000     -34.07430000     -72.04500000
C      -46.57430000     -32.54100000     -69.41930000
H      -47.23020000     -32.48520000     -70.30880000
H      -46.84360000     -31.92140000     -68.52580000
C      -46.37010000     -33.95920000     -68.87940000
C      -46.51280000     -34.20740000     -67.55220000
C      -45.91280000     -35.14720000     -69.58350000
H      -46.71110000     -33.40720000     -66.78650000
C      -45.84900000     -36.23860000     -68.68810000
C      -45.66140000     -35.52580000     -70.95610000
C      -45.33480000     -36.85610000     -71.05010000
S      -46.30900000     -35.90950000     -67.04780000
S      -45.29630000     -37.72370000     -69.50760000
H      -45.09340000     -37.33680000     -71.96060000
