40
Properties=species:S:1:pos:R:3 #=T CELL(abcABC):=T 1.889726e+02=T 90.00000=T Traj:=T positionsangstrom=T Step:=T 0=T Bead:=T pbc="F F F"
C      -48.66400000     -33.77150000     -71.15650000
C      -48.16470000     -35.05040000     -70.81250000
C      -47.55960000     -35.24260000     -69.57010000
C      -47.12870000     -34.17200000     -68.76980000
C      -47.38670000     -32.87510000     -69.23430000
C      -48.23190000     -32.72110000     -70.31520000
H      -49.28240000     -33.57670000     -72.03900000
H      -47.20710000     -36.26940000     -69.35510000
H      -46.96480000     -32.03780000     -68.74650000
H      -48.51940000     -31.73120000     -70.62990000
C      -46.48440000     -34.33760000     -67.41790000
H      -46.86990000     -35.14840000     -66.75360000
H      -46.66670000     -33.39060000     -66.88620000
C      -48.26470000     -36.24310000     -71.75570000
H      -48.55310000     -37.15330000     -71.26260000
H      -48.93840000     -35.99570000     -72.55950000
S      -44.63460000     -34.56080000     -67.58200000
S      -46.40280000     -36.51950000     -72.36930000
C      -44.11460000     -33.19390000     -68.73390000
H      -44.56790000     -32.28430000     -68.41960000
H      -43.06450000     -32.99640000     -68.57980000
C      -45.90980000     -34.92420000     -73.27010000
H      -46.24790000     -34.12270000     -72.61630000
H      -46.41420000     -34.89840000     -74.23690000
C      -44.39050000     -34.80570000     -73.40670000
H      -43.82680000     -35.26650000     -72.58260000
H      -44.09150000     -35.50970000     -74.21410000
C      -44.39250000     -33.53190000     -70.18630000
H      -45.48960000     -33.83000000     -70.45530000
H      -43.75320000     -34.42800000     -70.53490000
C      -44.10300000     -32.33130000     -71.11740000
C      -43.84740000     -31.03670000     -70.65430000
C      -43.93240000     -32.38100000     -72.53100000
H      -43.97300000     -30.50650000     -69.67770000
C      -43.61300000     -31.14030000     -73.04960000
C      -43.92730000     -33.35860000     -73.59380000
C      -43.56450000     -32.81040000     -74.78170000
S      -43.55440000     -29.82190000     -71.94480000
S      -43.18670000     -31.11180000     -74.68730000
H      -43.73270000     -33.41900000     -75.72880000
