40
Properties=species:S:1:pos:R:3 #=T CELL(abcABC):=T 1.889726e+02=T 90.00000=T Traj:=T positionsangstrom=T Step:=T 0=T Bead:=T pbc="F F F"
C      -45.76800000     -31.80870000     -74.95790000
C      -44.64400000     -32.21080000     -74.20280000
C      -44.19340000     -31.48500000     -73.06990000
C      -44.90160000     -30.27090000     -72.77300000
C      -46.09740000     -29.97720000     -73.45840000
C      -46.53320000     -30.71610000     -74.55870000
H      -46.23340000     -32.39020000     -75.79660000
H      -43.28560000     -31.77710000     -72.51580000
H      -46.57310000     -28.96420000     -73.26050000
H      -47.48770000     -30.52580000     -75.11720000
C      -44.49200000     -29.27870000     -71.69240000
H      -44.77910000     -28.27970000     -72.01440000
H      -43.39610000     -29.29800000     -71.56890000
C      -43.77340000     -33.32620000     -74.73330000
H      -43.27490000     -33.01130000     -75.65870000
H      -43.02480000     -33.59870000     -73.98840000
S      -45.43500000     -29.51890000     -70.05300000
S      -44.82680000     -34.93560000     -75.01470000
C      -45.02750000     -31.22560000     -69.57060000
H      -43.97060000     -31.50580000     -69.77020000
H      -44.95090000     -31.29040000     -68.44750000
C      -44.58580000     -35.79020000     -73.40310000
H      -43.65590000     -36.23710000     -73.37180000
H      -45.35270000     -36.60940000     -73.41980000
C      -44.91860000     -34.79590000     -72.22750000
H      -44.17630000     -33.96290000     -72.14490000
H      -45.88520000     -34.35290000     -72.55270000
C      -45.95290000     -32.29210000     -70.20030000
H      -45.64310000     -32.58760000     -71.17140000
H      -47.03730000     -31.96550000     -70.24700000
C      -45.89020000     -33.53110000     -69.34560000
C      -46.21050000     -33.44520000     -67.98890000
C      -45.56360000     -34.90590000     -69.67400000
H      -46.61130000     -32.50120000     -67.57550000
C      -45.67710000     -35.80460000     -68.64570000
C      -45.16740000     -35.50580000     -70.92240000
C      -45.02360000     -36.88750000     -70.74190000
S      -46.20150000     -34.94910000     -67.22810000
S      -45.35170000     -37.42820000     -69.08330000
H      -44.74630000     -37.57120000     -71.50220000
