40
Properties=species:S:1:pos:R:3 #=T CELL(abcABC):=T 1.889726e+02=T 90.00000=T Traj:=T positionsangstrom=T Step:=T 0=T Bead:=T pbc="F F F"
C      -48.35730000     -33.54760000     -71.21710000
C      -48.13570000     -34.94160000     -70.85280000
C      -47.55170000     -35.20700000     -69.57730000
C      -47.26470000     -34.21930000     -68.62900000
C      -47.67310000     -32.87440000     -68.96730000
C      -48.21960000     -32.55620000     -70.22070000
H      -48.73240000     -33.29050000     -72.24350000
H      -47.34410000     -36.23600000     -69.33950000
H      -47.77290000     -32.07480000     -68.23440000
H      -48.62080000     -31.53910000     -70.35160000
C      -46.46570000     -34.49700000     -67.36110000
H      -46.77300000     -35.52330000     -66.99170000
H      -46.65540000     -33.77470000     -66.61850000
C      -48.16450000     -36.05910000     -71.89210000
H      -48.47780000     -37.06370000     -71.61350000
H      -48.81450000     -35.86100000     -72.78480000
S      -44.62970000     -34.66620000     -67.75020000
S      -46.48220000     -36.45360000     -72.42640000
C      -44.23850000     -33.23460000     -68.75690000
H      -44.93440000     -32.38670000     -68.55520000
H      -43.25840000     -32.86210000     -68.39300000
C      -45.87600000     -34.79720000     -73.08020000
H      -46.30480000     -34.09980000     -72.38950000
H      -46.34600000     -34.64270000     -74.08410000
C      -44.32730000     -34.75680000     -73.25320000
H      -43.84180000     -35.23290000     -72.38180000
H      -43.98930000     -35.45440000     -74.06940000
C      -44.07500000     -33.59850000     -70.25310000
H      -44.90300000     -34.21170000     -70.37220000
H      -43.13260000     -34.11850000     -70.31190000
C      -43.98320000     -32.36270000     -71.10020000
C      -43.86120000     -31.07820000     -70.66370000
C      -43.74320000     -32.36820000     -72.49980000
H      -44.13670000     -30.70160000     -69.63670000
C      -43.53590000     -31.11320000     -73.08580000
C      -43.90950000     -33.38950000     -73.54360000
C      -43.67280000     -32.94530000     -74.78170000
S      -43.57720000     -29.83140000     -71.87190000
S      -43.33510000     -31.20330000     -74.80530000
H      -43.75160000     -33.56120000     -75.71240000
