40
Properties=species:S:1:pos:R:3 #=T CELL(abcABC):=T 1.889726e+02=T 90.00000=T Traj:=T positionsangstrom=T Step:=T 0=T Bead:=T pbc="F F F"
C      -45.54260000     -31.83560000     -68.54080000
C      -45.93390000     -33.19010000     -68.21850000
C      -47.10150000     -33.62250000     -68.76920000
C      -47.87920000     -32.86530000     -69.72380000
C      -47.45020000     -31.54320000     -69.96290000
C      -46.23240000     -31.01990000     -69.41250000
H      -44.50690000     -31.48640000     -68.20520000
H      -47.52460000     -34.65060000     -68.48690000
H      -48.00970000     -30.81350000     -70.57090000
H      -46.07240000     -29.98580000     -69.66680000
C      -49.25020000     -33.29220000     -70.22470000
H      -49.92900000     -32.43830000     -70.33280000
H      -49.69910000     -34.05920000     -69.53400000
C      -45.13150000     -34.00280000     -67.26730000
H      -44.26910000     -33.39120000     -66.85650000
H      -45.85290000     -34.34550000     -66.44400000
S      -48.97210000     -34.41640000     -71.71620000
S      -44.56100000     -35.51460000     -68.04820000
C      -47.91690000     -33.47460000     -72.99510000
H      -48.55000000     -33.30090000     -73.91260000
H      -47.80180000     -32.44330000     -72.62500000
C      -43.57970000     -34.81490000     -69.43260000
H      -42.73760000     -35.54280000     -69.55970000
H      -43.12140000     -33.82140000     -69.18580000
C      -44.29360000     -34.82790000     -70.84650000
H      -44.41170000     -35.83400000     -71.11200000
H      -45.26530000     -34.33000000     -70.74260000
C      -46.59060000     -34.18010000     -73.25060000
H      -46.75580000     -34.94140000     -74.02460000
H      -46.24560000     -34.70440000     -72.32140000
C      -45.37070000     -33.35500000     -73.64600000
C      -45.41510000     -32.48250000     -74.66640000
C      -44.06870000     -33.36690000     -72.97250000
H      -46.21050000     -32.36560000     -75.40010000
C      -43.12970000     -32.52710000     -73.65640000
C      -43.48870000     -34.08160000     -71.91500000
C      -42.13100000     -33.89060000     -71.82890000
S      -43.84700000     -31.76570000     -75.05960000
S      -41.58030000     -32.70040000     -73.05010000
H      -41.41380000     -34.47880000     -71.31020000
