40
Properties=species:S:1:pos:R:3 #=T CELL(abcABC):=T 1.889726e+02=T 90.00000=T Traj:=T positionsangstrom=T Step:=T 0=T Bead:=T pbc="F F F"
C      -45.66410000     -31.47850000     -75.06780000
C      -44.50500000     -31.93250000     -74.36160000
C      -43.95830000     -31.15220000     -73.38500000
C      -44.62760000     -30.05540000     -72.79600000
C      -45.76430000     -29.61160000     -73.54770000
C      -46.26910000     -30.32300000     -74.64950000
H      -46.08310000     -32.13920000     -75.85040000
H      -43.04170000     -31.49020000     -72.87910000
H      -46.44670000     -28.82720000     -73.21770000
H      -47.18560000     -29.88780000     -75.10310000
C      -44.14770000     -29.37310000     -71.65030000
H      -44.22850000     -28.26460000     -71.69210000
H      -43.12150000     -29.62780000     -71.46350000
C      -43.82700000     -33.17060000     -74.84680000
H      -43.33720000     -33.07140000     -75.77870000
H      -43.10250000     -33.51730000     -74.09040000
S      -45.20110000     -29.84140000     -70.21980000
S      -44.91360000     -34.67560000     -75.05150000
C      -45.08080000     -31.67610000     -69.84650000
H      -44.37510000     -32.07950000     -70.59200000
H      -44.62510000     -31.63510000     -68.89230000
C      -45.01550000     -35.52750000     -73.48250000
H      -44.12680000     -36.17200000     -73.29810000
H      -45.82260000     -36.16640000     -73.64790000
C      -45.46710000     -34.65770000     -72.22470000
H      -44.89830000     -33.70910000     -72.05400000
H      -46.50630000     -34.32010000     -72.43720000
C      -46.41400000     -32.34300000     -69.75670000
H      -46.89470000     -32.69320000     -70.72340000
H      -47.08800000     -31.57090000     -69.35310000
C      -46.21000000     -33.67780000     -68.96180000
C      -46.35300000     -33.76360000     -67.58590000
C      -45.81690000     -34.90790000     -69.55270000
H      -46.52570000     -32.89790000     -66.99160000
C      -45.77260000     -35.95220000     -68.59360000
C      -45.48190000     -35.46220000     -70.91110000
C      -45.06290000     -36.80060000     -70.77700000
S      -46.11160000     -35.38180000     -67.00910000
S      -45.14560000     -37.48170000     -69.17910000
H      -44.64160000     -37.49660000     -71.51710000
