40
Properties=species:S:1:pos:R:3 #=T CELL(abcABC):=T 1.889726e+02=T 90.00000=T Traj:=T positionsangstrom=T Step:=T 0=T Bead:=T pbc="F F F"
C      -44.02620000     -35.38960000     -67.92530000
C      -45.16680000     -34.64250000     -68.15500000
C      -46.20400000     -35.05400000     -69.08880000
C      -45.99220000     -36.22910000     -69.82590000
C      -44.83390000     -37.01620000     -69.53440000
C      -43.89490000     -36.52510000     -68.65530000
H      -43.10200000     -35.15380000     -67.29960000
H      -47.08340000     -34.42590000     -69.26410000
H      -44.69470000     -37.97930000     -70.05600000
H      -43.02220000     -37.07410000     -68.43150000
C      -46.80770000     -36.80860000     -70.94260000
H      -47.84460000     -36.98810000     -70.61600000
H      -46.58630000     -37.84260000     -71.22920000
C      -45.47620000     -33.34790000     -67.38150000
H      -46.36420000     -32.83630000     -67.66080000
H      -45.58360000     -33.64140000     -66.33990000
S      -46.81880000     -35.74700000     -72.63830000
S      -44.03220000     -32.18060000     -67.64800000
C      -44.95680000     -35.89080000     -72.93620000
H      -44.54070000     -36.68700000     -72.26730000
H      -44.67390000     -36.11040000     -73.94690000
C      -44.55530000     -31.28050000     -69.17330000
H      -44.03880000     -30.35410000     -69.03870000
H      -45.65330000     -31.09920000     -69.17150000
C      -44.01390000     -31.95780000     -70.57240000
H      -42.93170000     -31.81600000     -70.79040000
H      -44.30610000     -32.98640000     -70.39290000
C      -44.21970000     -34.56700000     -72.75300000
H      -43.18840000     -34.84490000     -73.07670000
H      -44.03800000     -34.35170000     -71.74060000
C      -44.91020000     -33.36710000     -73.41680000
C      -45.55330000     -33.57310000     -74.58840000
C      -45.13540000     -32.02270000     -72.81400000
H      -45.47900000     -34.43040000     -75.29290000
C      -45.73730000     -31.19050000     -73.84080000
C      -44.78600000     -31.28040000     -71.68220000
C      -45.17570000     -29.95190000     -71.75930000
S      -46.21960000     -32.05910000     -75.26840000
S      -45.92310000     -29.54910000     -73.25950000
H      -44.89970000     -29.28670000     -70.99280000
