40
Properties=species:S:1:pos:R:3 #=T CELL(abcABC):=T 1.889726e+02=T 90.00000=T Traj:=T positionsangstrom=T Step:=T 0=T Bead:=T pbc="F F F"
C      -45.28360000     -32.25310000     -68.33230000
C      -45.69890000     -33.57450000     -68.11720000
C      -46.88500000     -33.92910000     -68.73360000
C      -47.71460000     -32.96190000     -69.36910000
C      -47.30000000     -31.63120000     -69.44620000
C      -46.01560000     -31.30100000     -69.02810000
H      -44.22850000     -31.90210000     -68.00990000
H      -47.26170000     -34.96340000     -68.62460000
H      -47.85310000     -30.78150000     -69.89690000
H      -45.67730000     -30.32120000     -69.03390000
C      -49.03650000     -33.40430000     -69.92900000
H      -49.74340000     -32.59870000     -70.03820000
H      -49.43730000     -34.10620000     -69.26960000
C      -44.93230000     -34.61690000     -67.38380000
H      -44.12660000     -34.10520000     -66.71380000
H      -45.62380000     -35.15300000     -66.75600000
S      -48.99950000     -34.33150000     -71.54870000
S      -44.04280000     -35.86170000     -68.42210000
C      -47.90880000     -33.41220000     -72.73740000
H      -48.56430000     -33.14830000     -73.56580000
H      -47.62480000     -32.40280000     -72.35810000
C      -43.33270000     -34.80200000     -69.76230000
H      -42.36110000     -35.38970000     -70.06030000
H      -42.91050000     -33.90760000     -69.25450000
C      -44.28550000     -34.43500000     -70.86700000
H      -44.68470000     -35.33540000     -71.39650000
H      -45.17350000     -33.92680000     -70.51080000
C      -46.67310000     -34.23770000     -73.15050000
H      -47.05220000     -35.00520000     -73.80600000
H      -46.36470000     -34.70970000     -72.20240000
C      -45.55150000     -33.43530000     -73.73900000
C      -45.65880000     -32.68700000     -74.86650000
C      -44.24460000     -33.19030000     -73.07780000
H      -46.51630000     -32.67950000     -75.52970000
C      -43.47950000     -32.34210000     -73.92140000
C      -43.61280000     -33.62640000     -71.86490000
C      -42.31440000     -33.12720000     -71.71580000
S      -44.28220000     -31.81310000     -75.32810000
S      -41.89930000     -32.14490000     -73.13500000
H      -41.68310000     -33.24110000     -70.80140000
