40
Properties=species:S:1:pos:R:3 #=T CELL(abcABC):=T 1.889726e+02=T 90.00000=T Traj:=T positionsangstrom=T Step:=T 0=T Bead:=T pbc="F F F"
C      -45.23060000     -32.75700000     -67.82900000
C      -45.83760000     -34.08100000     -67.87220000
C      -47.09590000     -34.16860000     -68.49550000
C      -47.75740000     -33.06520000     -69.08200000
C      -47.17920000     -31.82120000     -68.89840000
C      -45.91430000     -31.62080000     -68.29500000
H      -44.27930000     -32.70420000     -67.43200000
H      -47.49870000     -35.21150000     -68.66420000
H      -47.87230000     -31.02060000     -69.20780000
H      -45.52580000     -30.63910000     -68.11090000
C      -48.99360000     -33.23030000     -69.87780000
H      -49.37580000     -32.27700000     -70.21530000
H      -49.78880000     -33.78630000     -69.29630000
C      -44.92650000     -35.14410000     -67.37540000
H      -44.19280000     -34.80230000     -66.66890000
H      -45.44010000     -35.98260000     -67.00010000
S      -48.61810000     -34.43390000     -71.21970000
S      -43.87130000     -35.96360000     -68.75070000
C      -47.32160000     -33.51280000     -72.20420000
H      -47.81450000     -32.60690000     -72.59630000
H      -46.52880000     -33.21940000     -71.50410000
C      -43.24830000     -34.62340000     -69.94620000
H      -42.20750000     -34.86450000     -70.10630000
H      -43.23190000     -33.70670000     -69.29720000
C      -44.10210000     -34.42290000     -71.20070000
H      -44.11040000     -35.27830000     -71.78250000
H      -45.06640000     -34.34280000     -70.80390000
C      -46.63870000     -34.41550000     -73.25730000
H      -47.41140000     -34.50300000     -74.04580000
H      -46.24020000     -35.35350000     -72.88760000
C      -45.57740000     -33.50650000     -73.91740000
C      -45.77560000     -32.90330000     -75.11440000
C      -44.30200000     -33.10690000     -73.40120000
H      -46.57570000     -32.97660000     -75.87580000
C      -43.63210000     -32.11960000     -74.16560000
C      -43.66850000     -33.34340000     -72.15480000
C      -42.56660000     -32.54090000     -71.89790000
S      -44.59110000     -31.65350000     -75.61710000
S      -42.26210000     -31.49520000     -73.28110000
H      -41.85290000     -32.77380000     -71.09870000
