40
Properties=species:S:1:pos:R:3 #=T CELL(abcABC):=T 1.889726e+02=T 90.00000=T Traj:=T positionsangstrom=T Step:=T 0=T Bead:=T pbc="F F F"
C      -45.30030000     -32.56890000     -67.80650000
C      -45.20860000     -33.95480000     -67.96830000
C      -46.31330000     -34.60890000     -68.54330000
C      -47.49980000     -33.97500000     -68.93260000
C      -47.54570000     -32.56650000     -68.81620000
C      -46.47480000     -31.87020000     -68.22010000
H      -44.53980000     -32.04390000     -67.38740000
H      -46.28960000     -35.64660000     -68.66320000
H      -48.39790000     -31.92530000     -69.15440000
H      -46.60880000     -30.80160000     -68.16060000
C      -48.69190000     -34.81560000     -69.45950000
H      -49.59670000     -34.22380000     -69.55000000
H      -48.74980000     -35.71800000     -68.73790000
C      -43.91560000     -34.57460000     -67.49020000
H      -43.30440000     -33.84070000     -67.03080000
H      -44.02540000     -35.31830000     -66.75160000
S      -48.31870000     -35.52090000     -71.20690000
S      -43.03380000     -35.44320000     -68.89640000
C      -47.46950000     -34.11940000     -72.01360000
H      -48.20400000     -33.27720000     -72.08160000
H      -46.66070000     -33.72550000     -71.33280000
C      -42.84300000     -34.04660000     -70.12650000
H      -41.74730000     -33.84230000     -70.19260000
H      -43.31110000     -33.23550000     -69.59350000
C      -43.58000000     -34.38680000     -71.44750000
H      -42.97570000     -35.19200000     -71.84890000
H      -44.51820000     -34.87050000     -71.28110000
C      -46.80180000     -34.46310000     -73.31120000
H      -47.54970000     -34.80170000     -74.04520000
H      -46.22270000     -35.33650000     -73.18540000
C      -45.93570000     -33.32060000     -73.90050000
C      -46.57680000     -32.47990000     -74.72480000
C      -44.62070000     -32.85030000     -73.39230000
H      -47.55820000     -32.70500000     -75.14260000
C      -44.29250000     -31.63660000     -74.04720000
C      -43.57630000     -33.22230000     -72.42900000
C      -42.58240000     -32.19220000     -72.41090000
S      -45.49420000     -31.14710000     -75.12410000
S      -42.79320000     -30.87080000     -73.64050000
H      -41.72450000     -32.36770000     -71.82030000
