40
Properties=species:S:1:pos:R:3 #=T CELL(abcABC):=T 1.889726e+02=T 90.00000=T Traj:=T positionsangstrom=T Step:=T 0=T Bead:=T pbc="F F F"
C      -48.88030000     -32.34680000     -71.83590000
C      -47.81860000     -32.02570000     -72.70740000
C      -47.26360000     -32.99770000     -73.49700000
C      -47.78430000     -34.30310000     -73.48820000
C      -48.85150000     -34.60240000     -72.72310000
C      -49.48060000     -33.61880000     -71.91070000
H      -49.21160000     -31.51920000     -71.16720000
H      -46.47470000     -32.77100000     -74.11310000
H      -49.32680000     -35.60010000     -72.64500000
H      -50.31550000     -34.02770000     -71.31210000
C      -46.94840000     -35.27990000     -74.24410000
H      -46.13750000     -34.76010000     -74.78760000
H      -47.51760000     -35.89070000     -74.96720000
C      -47.47310000     -30.57140000     -72.92710000
H      -48.16490000     -30.32270000     -73.74920000
H      -47.72130000     -29.83890000     -72.11350000
S      -46.03990000     -36.58120000     -73.25800000
S      -45.78900000     -30.18730000     -73.46460000
C      -44.95930000     -35.55570000     -72.17810000
H      -43.99370000     -36.13410000     -72.14540000
H      -44.61580000     -34.73870000     -72.88130000
C      -44.69320000     -30.60500000     -71.93330000
H      -45.35730000     -30.54180000     -71.09430000
H      -43.78910000     -29.91950000     -72.02040000
C      -44.12240000     -32.04150000     -71.90020000
H      -44.95730000     -32.73030000     -71.99240000
H      -43.36500000     -32.20850000     -72.66820000
C      -45.61510000     -34.87170000     -70.98670000
H      -46.45330000     -35.53670000     -70.73750000
H      -46.12100000     -33.92520000     -71.17030000
C      -44.74140000     -34.58560000     -69.83500000
C      -44.67520000     -35.42020000     -68.77390000
C      -43.81860000     -33.43380000     -69.72090000
H      -45.34420000     -36.21710000     -68.53950000
C      -42.98660000     -33.56610000     -68.58020000
C      -43.45110000     -32.33610000     -70.53650000
C      -42.42880000     -31.56490000     -70.03240000
S      -43.22910000     -35.04820000     -67.76990000
S      -41.77310000     -32.24910000     -68.56740000
H      -41.88290000     -30.66630000     -70.45220000
