40
Properties=species:S:1:pos:R:3 #=T CELL(abcABC):=T 1.889726e+02=T 90.00000=T Traj:=T positionsangstrom=T Step:=T 0=T Bead:=T pbc="F F F"
C      -45.41390000     -32.81850000     -67.78530000
C      -45.06550000     -34.20610000     -67.97070000
C      -46.07270000     -35.11390000     -68.40640000
C      -47.36390000     -34.60670000     -68.70270000
C      -47.70980000     -33.32110000     -68.32330000
C      -46.74910000     -32.43870000     -67.84350000
H      -44.61850000     -32.12760000     -67.62080000
H      -45.92830000     -36.21380000     -68.48510000
H      -48.68080000     -32.84690000     -68.66100000
H      -46.92220000     -31.34030000     -67.55300000
C      -48.34990000     -35.48610000     -69.32500000
H      -49.36820000     -35.29860000     -69.19430000
H      -48.17640000     -36.55940000     -68.94750000
C      -43.69100000     -34.60120000     -67.68740000
H      -43.00780000     -33.83340000     -67.31390000
H      -43.65030000     -35.49750000     -66.99310000
S      -48.15410000     -35.61710000     -71.22490000
S      -42.79380000     -35.37290000     -69.19760000
C      -47.67610000     -33.95040000     -71.86390000
H      -48.62550000     -33.42200000     -72.09150000
H      -47.08660000     -33.35670000     -71.14380000
C      -42.68760000     -33.87530000     -70.34460000
H      -41.75290000     -34.04760000     -70.88950000
H      -42.48610000     -32.97310000     -69.80860000
C      -43.99280000     -33.72570000     -71.16820000
H      -44.22660000     -34.61470000     -71.73590000
H      -44.79150000     -33.60270000     -70.46370000
C      -46.96140000     -34.11480000     -73.20540000
H      -47.67030000     -34.38580000     -74.01990000
H      -46.30540000     -35.00250000     -73.20950000
C      -46.16370000     -32.88800000     -73.71190000
C      -46.46430000     -32.40730000     -74.94720000
C      -44.84560000     -32.44030000     -73.24690000
H      -47.24880000     -32.53010000     -75.64080000
C      -44.26300000     -31.55600000     -74.21490000
C      -43.92740000     -32.64090000     -72.15930000
C      -42.86660000     -31.73600000     -72.21090000
S      -45.39450000     -31.13230000     -75.51250000
S      -42.89470000     -30.74010000     -73.66770000
H      -41.91150000     -31.75810000     -71.71850000
