40
Properties=species:S:1:pos:R:3 #=T CELL(abcABC):=T 1.889726e+02=T 90.00000=T Traj:=T positionsangstrom=T Step:=T 0=T Bead:=T pbc="F F F"
C      -45.15810000     -32.39990000     -67.99570000
C      -45.15720000     -33.79650000     -68.10360000
C      -46.36320000     -34.43490000     -68.48100000
C      -47.54670000     -33.71330000     -68.80950000
C      -47.49120000     -32.32790000     -68.70260000
C      -46.35870000     -31.68860000     -68.17100000
H      -44.27670000     -31.82940000     -67.64270000
H      -46.28800000     -35.57170000     -68.71720000
H      -48.38210000     -31.74020000     -68.94230000
H      -46.43070000     -30.62500000     -68.09520000
C      -48.66860000     -34.52780000     -69.36870000
H      -49.55090000     -33.90700000     -69.40720000
H      -48.98000000     -35.40690000     -68.73150000
C      -43.95800000     -34.65740000     -67.67740000
H      -43.07410000     -34.04120000     -67.58320000
H      -44.22380000     -35.29750000     -66.73800000
S      -48.27070000     -35.27530000     -70.99360000
S      -43.49790000     -35.84880000     -69.04360000
C      -47.73100000     -33.72500000     -71.92890000
H      -48.55800000     -33.13160000     -72.22890000
H      -47.04030000     -33.26840000     -71.23990000
C      -43.09590000     -34.62380000     -70.33330000
H      -42.43900000     -35.19480000     -70.95490000
H      -42.42770000     -33.87360000     -69.90790000
C      -44.20080000     -34.04150000     -71.17300000
H      -44.79080000     -34.93030000     -71.59910000
H      -44.90260000     -33.40170000     -70.54180000
C      -46.86440000     -34.20260000     -73.21390000
H      -47.53610000     -34.58890000     -74.03300000
H      -46.22630000     -35.06310000     -72.98570000
C      -46.01050000     -33.12330000     -73.75900000
C      -46.25850000     -32.44980000     -74.92040000
C      -44.72100000     -32.69130000     -73.26440000
H      -47.08890000     -32.57090000     -75.58260000
C      -44.09790000     -31.73310000     -74.09640000
C      -43.81850000     -33.10970000     -72.21930000
C      -42.58920000     -32.42400000     -72.23990000
S      -45.06890000     -31.30320000     -75.44100000
S      -42.41750000     -31.35400000     -73.58980000
H      -41.75680000     -32.62270000     -71.59880000
