40
Properties=species:S:1:pos:R:3 #=T CELL(abcABC):=T 1.889726e+02=T 90.00000=T Traj:=T positionsangstrom=T Step:=T 0=T Bead:=T pbc="F F F"
C      -45.35640000     -33.18060000     -67.10070000
C      -44.98330000     -34.32180000     -67.83800000
C      -46.01860000     -34.89440000     -68.62200000
C      -47.26310000     -34.34180000     -68.77060000
C      -47.52780000     -33.18460000     -68.02500000
C      -46.62660000     -32.64890000     -67.11120000
H      -44.55070000     -32.90120000     -66.37530000
H      -45.70260000     -35.67130000     -69.25310000
H      -48.54570000     -32.69860000     -68.09650000
H      -46.78540000     -31.72660000     -66.63690000
C      -48.28770000     -34.96910000     -69.71370000
H      -49.07000000     -34.30050000     -70.02250000
H      -48.70300000     -35.83470000     -69.06630000
C      -43.69730000     -35.00350000     -67.74350000
H      -42.99350000     -34.58030000     -66.99700000
H      -43.79510000     -36.00010000     -67.31710000
S      -47.72530000     -35.82000000     -71.24610000
S      -42.78180000     -35.33450000     -69.40570000
C      -47.25880000     -34.37710000     -72.33330000
H      -48.05100000     -33.79380000     -72.69490000
H      -46.81010000     -33.74710000     -71.61590000
C      -42.74710000     -33.81760000     -70.39410000
H      -41.90000000     -33.96450000     -71.09300000
H      -42.46170000     -33.00440000     -69.71690000
C      -44.10410000     -33.48850000     -71.13040000
H      -44.43640000     -34.41520000     -71.63380000
H      -44.79640000     -33.29450000     -70.29450000
C      -46.29840000     -34.64300000     -73.50540000
H      -46.88150000     -35.14720000     -74.26970000
H      -45.52780000     -35.35460000     -73.26310000
C      -45.80790000     -33.36280000     -73.99370000
C      -46.35700000     -32.84030000     -75.16010000
C      -44.78210000     -32.52060000     -73.36730000
H      -46.85690000     -33.40920000     -75.93470000
C      -44.60720000     -31.38540000     -74.16790000
C      -43.97820000     -32.42030000     -72.15250000
C      -43.30210000     -31.21340000     -72.08740000
S      -45.71890000     -31.25620000     -75.45010000
S      -43.54960000     -30.14830000     -73.45810000
H      -42.47870000     -31.03740000     -71.38790000
