40
Properties=species:S:1:pos:R:3 #=T CELL(abcABC):=T 1.889726e+02=T 90.00000=T Traj:=T positionsangstrom=T Step:=T 0=T Bead:=T pbc="F F F"
C      -45.54800000     -32.03110000     -75.71300000
C      -44.72530000     -32.73190000     -74.74040000
C      -44.13460000     -32.11370000     -73.62300000
C      -44.16230000     -30.68040000     -73.51250000
C      -44.93440000     -30.05230000     -74.41940000
C      -45.54020000     -30.65660000     -75.57790000
H      -46.08840000     -32.54490000     -76.52270000
H      -43.42490000     -32.66120000     -73.10860000
H      -44.98620000     -29.00710000     -74.25100000
H      -46.14090000     -30.11730000     -76.27030000
C      -43.49400000     -30.00070000     -72.40950000
H      -43.24790000     -28.96000000     -72.69540000
H      -42.62520000     -30.43890000     -71.89700000
C      -44.40550000     -34.19650000     -74.97380000
H      -44.07560000     -34.31990000     -76.05050000
H      -43.55880000     -34.50390000     -74.32710000
S      -44.82650000     -29.76920000     -71.02700000
S      -45.91390000     -35.25800000     -74.68680000
C      -44.75440000     -31.27530000     -69.95670000
H      -43.92380000     -31.96390000     -70.28640000
H      -44.63430000     -30.91930000     -68.85990000
C      -45.69560000     -35.86680000     -72.94990000
H      -44.64540000     -36.26770000     -72.97430000
H      -46.37690000     -36.65830000     -72.81810000
C      -45.86550000     -34.77830000     -71.84450000
H      -45.09950000     -34.01000000     -71.92800000
H      -46.75730000     -34.17230000     -71.90160000
C      -46.15420000     -31.96400000     -69.98760000
H      -46.48230000     -32.40310000     -70.93350000
H      -46.96020000     -31.25560000     -69.70110000
C      -46.04180000     -33.15840000     -68.93900000
C      -46.18100000     -32.91030000     -67.58630000
C      -45.73750000     -34.56120000     -69.19330000
H      -46.40420000     -31.98840000     -67.11440000
C      -45.53400000     -35.29220000     -68.00800000
C      -45.63570000     -35.33860000     -70.38190000
C      -45.43500000     -36.62990000     -70.09980000
S      -45.92970000     -34.36020000     -66.55770000
S      -45.29320000     -36.97760000     -68.37940000
H      -45.19440000     -37.40800000     -70.79420000
