40
Properties=species:S:1:pos:R:3 #=T CELL(abcABC):=T 1.889726e+02=T 90.00000=T Traj:=T positionsangstrom=T Step:=T 0=T Bead:=T pbc="F F F"
C      -45.27630000     -33.41220000     -67.14620000
C      -44.86330000     -34.47760000     -67.95790000
C      -45.89880000     -35.01650000     -68.77000000
C      -47.18880000     -34.39940000     -68.82640000
C      -47.42990000     -33.29240000     -68.00900000
C      -46.50110000     -32.76850000     -67.15570000
H      -44.50740000     -32.98120000     -66.51870000
H      -45.65210000     -35.96050000     -69.34450000
H      -48.40090000     -32.88970000     -68.04350000
H      -46.80930000     -32.03320000     -66.45510000
C      -48.35180000     -34.85290000     -69.65060000
H      -48.90780000     -33.93130000     -69.81990000
H      -48.99240000     -35.59540000     -69.13710000
C      -43.47160000     -34.86170000     -67.87270000
H      -42.91150000     -34.04200000     -67.43540000
H      -43.47070000     -35.80510000     -67.24980000
S      -47.73910000     -35.65260000     -71.19360000
S      -42.71040000     -35.34590000     -69.41980000
C      -47.11070000     -34.20430000     -72.15250000
H      -47.92820000     -33.49550000     -72.46380000
H      -46.50780000     -33.66420000     -71.39410000
C      -42.77490000     -33.65280000     -70.31660000
H      -41.83470000     -33.49070000     -70.84640000
H      -42.88790000     -32.93950000     -69.51680000
C      -43.96430000     -33.71200000     -71.30760000
H      -43.83640000     -34.61050000     -71.91260000
H      -44.92490000     -33.69690000     -70.83180000
C      -46.20990000     -34.60740000     -73.31200000
H      -46.82390000     -35.25680000     -74.02160000
H      -45.37250000     -35.24930000     -72.96180000
C      -45.86000000     -33.34630000     -73.98620000
C      -46.44540000     -32.88950000     -75.19340000
C      -44.92860000     -32.44540000     -73.37060000
H      -47.28390000     -33.30380000     -75.76860000
C      -44.81000000     -31.31000000     -74.13260000
C      -44.04070000     -32.48550000     -72.24760000
C      -43.33330000     -31.30600000     -72.03710000
S      -45.76940000     -31.32820000     -75.56250000
S      -43.78020000     -30.10000000     -73.32190000
H      -42.66880000     -31.05820000     -71.21380000
