40
Properties=species:S:1:pos:R:3 #=T CELL(abcABC):=T 1.889726e+02=T 90.00000=T Traj:=T positionsangstrom=T Step:=T 0=T Bead:=T pbc="F F F"
C      -44.67360000     -32.96410000     -68.61570000
C      -44.63880000     -34.33570000     -68.43650000
C      -45.83630000     -35.03360000     -68.63080000
C      -47.02160000     -34.37690000     -68.83110000
C      -47.06300000     -32.97330000     -68.93790000
C      -45.88060000     -32.20920000     -68.80610000
H      -43.68600000     -32.42640000     -68.51330000
H      -45.89190000     -36.08850000     -68.42660000
H      -47.98410000     -32.38340000     -68.90310000
H      -45.77460000     -31.15580000     -68.68010000
C      -48.19870000     -35.23580000     -69.18540000
H      -49.15950000     -34.65580000     -68.98410000
H      -48.34740000     -36.15000000     -68.59410000
C      -43.39550000     -34.93930000     -67.95450000
H      -42.78120000     -34.17280000     -67.46770000
H      -43.49120000     -35.81530000     -67.29240000
S      -48.17710000     -35.71560000     -71.01610000
S      -42.44120000     -35.58800000     -69.45630000
C      -47.87190000     -34.10730000     -71.83120000
H      -48.80840000     -33.56030000     -71.90800000
H      -47.23590000     -33.46840000     -71.14680000
C      -42.50430000     -34.21640000     -70.76810000
H      -41.74190000     -34.47680000     -71.47170000
H      -42.29650000     -33.33730000     -70.19880000
C      -43.83090000     -34.15410000     -71.46270000
H      -43.94000000     -35.02800000     -72.12500000
H      -44.64540000     -34.10100000     -70.72490000
C      -46.97880000     -34.28720000     -73.12450000
H      -47.66170000     -34.68950000     -73.95700000
H      -46.23700000     -35.04990000     -72.91510000
C      -46.34150000     -33.01090000     -73.55430000
C      -47.08540000     -32.08780000     -74.19640000
C      -45.06410000     -32.52520000     -73.13630000
H      -48.10060000     -32.23950000     -74.62650000
C      -44.83160000     -31.30070000     -73.75240000
C      -43.90720000     -32.91870000     -72.33820000
C      -42.97000000     -31.94930000     -72.30660000
S      -46.20730000     -30.66030000     -74.67980000
S      -43.30850000     -30.58920000     -73.34410000
H      -42.00460000     -32.12260000     -71.96870000
