40
Properties=species:S:1:pos:R:3 #=T CELL(abcABC):=T 1.889726e+02=T 90.00000=T Traj:=T positionsangstrom=T Step:=T 0=T Bead:=T pbc="F F F"
C      -44.93600000     -32.78350000     -68.56860000
C      -44.74960000     -34.17590000     -68.36660000
C      -45.86450000     -34.94970000     -68.37930000
C      -47.10430000     -34.47410000     -68.83560000
C      -47.23780000     -33.10630000     -69.10070000
C      -46.20270000     -32.19210000     -68.76350000
H      -44.13370000     -32.14670000     -68.40130000
H      -45.70550000     -36.02070000     -68.19050000
H      -48.25770000     -32.70090000     -69.35450000
H      -46.25350000     -31.16590000     -69.09110000
C      -48.34600000     -35.30290000     -69.21190000
H      -49.23650000     -34.76770000     -69.05180000
H      -48.42300000     -36.30240000     -68.69290000
C      -43.38340000     -34.74710000     -68.00860000
H      -42.74830000     -34.01550000     -67.55500000
H      -43.57050000     -35.51420000     -67.23640000
S      -48.13430000     -35.85560000     -71.02790000
S      -42.57300000     -35.62400000     -69.40250000
C      -47.73030000     -34.18200000     -71.89750000
H      -48.66230000     -33.79350000     -72.32650000
H      -47.24330000     -33.48200000     -71.23410000
C      -42.54840000     -34.31830000     -70.69960000
H      -41.61680000     -34.42900000     -71.27610000
H      -42.43210000     -33.35720000     -70.17740000
C      -43.78100000     -34.19810000     -71.61950000
H      -43.82790000     -35.05790000     -72.25340000
H      -44.67820000     -34.47070000     -71.01950000
C      -46.75750000     -34.39360000     -73.07470000
H      -47.16900000     -34.84600000     -73.93080000
H      -45.97450000     -35.07720000     -72.69730000
C      -46.24950000     -32.98780000     -73.54330000
C      -46.91990000     -32.16500000     -74.39330000
C      -44.99790000     -32.39610000     -73.12060000
H      -47.84520000     -32.40580000     -74.87410000
C      -44.79320000     -31.14760000     -73.67140000
C      -43.85590000     -32.87830000     -72.34270000
C      -42.80790000     -32.01220000     -72.40130000
S      -46.12180000     -30.60440000     -74.68300000
S      -43.24610000     -30.52760000     -73.28810000
H      -41.83170000     -32.06880000     -72.01210000
