40
Properties=species:S:1:pos:R:3 #=T CELL(abcABC):=T 1.889726e+02=T 90.00000=T Traj:=T positionsangstrom=T Step:=T 0=T Bead:=T pbc="F F F"
C      -43.88200000     -33.78160000     -67.29840000
C      -44.07830000     -34.86940000     -68.12930000
C      -45.36310000     -35.12330000     -68.61560000
C      -46.44090000     -34.35690000     -68.19450000
C      -46.25040000     -33.29590000     -67.26630000
C      -44.94320000     -33.04090000     -66.78040000
H      -42.87740000     -33.38700000     -67.04350000
H      -45.55610000     -35.89610000     -69.32050000
H      -47.08370000     -32.75540000     -66.87400000
H      -44.78350000     -32.16010000     -66.16830000
C      -47.81760000     -34.54200000     -68.72020000
H      -48.40800000     -33.66780000     -68.45600000
H      -48.34820000     -35.36290000     -68.18020000
C      -42.78960000     -35.55540000     -68.68510000
H      -41.98470000     -34.81750000     -68.32650000
H      -42.56060000     -36.52980000     -68.20550000
S      -48.08430000     -35.15640000     -70.49950000
S      -42.84030000     -35.93610000     -70.51900000
C      -47.66070000     -33.58700000     -71.50310000
H      -48.51040000     -32.97640000     -71.43390000
H      -46.76640000     -33.17370000     -71.16440000
C      -42.78610000     -34.18300000     -71.28080000
H      -42.35120000     -34.34170000     -72.31800000
H      -42.13740000     -33.57180000     -70.60310000
C      -44.20790000     -33.65270000     -71.46020000
H      -44.93710000     -34.46850000     -71.69570000
H      -44.50730000     -33.33750000     -70.44520000
C      -47.34500000     -34.06430000     -72.86270000
H      -48.23540000     -34.34780000     -73.42470000
H      -46.62240000     -34.95180000     -72.84880000
C      -46.68650000     -32.98130000     -73.71180000
C      -47.29030000     -32.40190000     -74.81390000
C      -45.42060000     -32.29500000     -73.31700000
H      -48.23940000     -32.80630000     -75.24960000
C      -45.16590000     -31.29040000     -74.24170000
C      -44.34030000     -32.45260000     -72.36900000
C      -43.38870000     -31.43580000     -72.39980000
S      -46.42720000     -31.02640000     -75.42550000
S      -43.72910000     -30.35790000     -73.76320000
H      -42.40690000     -31.41820000     -71.99090000
