40
Properties=species:S:1:pos:R:3 #=T CELL(abcABC):=T 1.889726e+02=T 90.00000=T Traj:=T positionsangstrom=T Step:=T 0=T Bead:=T pbc="F F F"
C      -43.73200000     -34.04620000     -67.09910000
C      -43.90560000     -34.94200000     -68.14930000
C      -45.23700000     -35.02820000     -68.61810000
C      -46.33020000     -34.33030000     -68.15150000
C      -46.11170000     -33.40830000     -67.08130000
C      -44.74930000     -33.18370000     -66.67390000
H      -42.72170000     -33.97220000     -66.61230000
H      -45.38830000     -35.68400000     -69.54030000
H      -46.93430000     -32.82170000     -66.80130000
H      -44.44640000     -32.33850000     -65.97680000
C      -47.70090000     -34.67280000     -68.53790000
H      -48.36030000     -33.81420000     -68.36610000
H      -48.19430000     -35.47100000     -67.92910000
C      -42.73180000     -35.72770000     -68.83140000
H      -41.73570000     -35.26920000     -68.71920000
H      -42.69150000     -36.71960000     -68.41960000
S      -47.96190000     -35.07330000     -70.29670000
S      -42.86280000     -35.91100000     -70.64070000
C      -47.76610000     -33.56910000     -71.29530000
H      -48.68390000     -32.85950000     -71.30950000
H      -46.96850000     -32.86600000     -70.98310000
C      -43.07850000     -34.30570000     -71.47100000
H      -42.95700000     -34.58750000     -72.49060000
H      -42.25360000     -33.61330000     -71.21420000
C      -44.39650000     -33.47900000     -71.38960000
H      -45.22530000     -34.19530000     -71.47950000
H      -44.42050000     -32.93710000     -70.43900000
C      -47.41130000     -33.92880000     -72.82140000
H      -48.31770000     -34.22260000     -73.32270000
H      -46.81200000     -34.82400000     -72.81280000
C      -46.80620000     -32.78780000     -73.60200000
C      -47.44080000     -32.32040000     -74.71690000
C      -45.56730000     -32.12160000     -73.29630000
H      -48.44370000     -32.54920000     -75.18700000
C      -45.27390000     -31.17980000     -74.28400000
C      -44.44230000     -32.37240000     -72.43440000
C      -43.39450000     -31.53150000     -72.68830000
S      -46.44700000     -31.07350000     -75.51140000
S      -43.70610000     -30.40250000     -73.94770000
H      -42.43280000     -31.43600000     -72.18070000
