40
Properties=species:S:1:pos:R:3 #=T CELL(abcABC):=T 1.889726e+02=T 90.00000=T Traj:=T positionsangstrom=T Step:=T 0=T Bead:=T pbc="F F F"
C      -48.41430000     -31.73400000     -73.05950000
C      -47.11430000     -31.75410000     -73.62140000
C      -46.47830000     -33.01430000     -74.07500000
C      -47.08600000     -34.20440000     -73.69090000
C      -48.27610000     -34.20360000     -72.95920000
C      -48.94020000     -32.97150000     -72.69830000
H      -48.76750000     -30.83450000     -72.64040000
H      -45.51640000     -33.04850000     -74.49900000
H      -48.85250000     -35.10480000     -72.78730000
H      -49.95470000     -33.04090000     -72.29390000
C      -46.42370000     -35.52520000     -74.10680000
H      -45.37720000     -35.48140000     -74.28830000
H      -46.88820000     -35.99690000     -74.96620000
C      -46.36010000     -30.39140000     -73.75350000
H      -46.58800000     -29.79160000     -74.62460000
H      -46.65630000     -29.76410000     -72.90770000
S      -46.48800000     -36.86610000     -72.82020000
S      -44.53170000     -30.55640000     -74.06450000
C      -45.90370000     -35.94620000     -71.34880000
H      -46.49820000     -35.04930000     -71.17780000
H      -46.19370000     -36.67690000     -70.62940000
C      -43.81890000     -30.86580000     -72.31590000
H      -43.89110000     -30.02340000     -71.69870000
H      -42.69650000     -31.00290000     -72.49110000
C      -44.47960000     -32.07170000     -71.68400000
H      -45.58240000     -32.00260000     -71.74860000
H      -44.12350000     -32.91920000     -72.28650000
C      -44.38230000     -35.63000000     -71.25280000
H      -44.07740000     -34.98700000     -72.15950000
H      -43.80100000     -36.49840000     -71.31050000
C      -44.04330000     -34.91550000     -70.00260000
C      -43.81870000     -35.73190000     -68.95950000
C      -43.98120000     -33.55270000     -69.58720000
H      -43.99930000     -36.78810000     -69.00270000
C      -43.84440000     -33.40680000     -68.19740000
C      -44.15740000     -32.26240000     -70.22000000
C      -44.15290000     -31.24810000     -69.31560000
S      -43.75820000     -34.93930000     -67.30890000
S      -43.88980000     -31.75520000     -67.64540000
H      -44.29230000     -30.24500000     -69.68680000
