40
Properties=species:S:1:pos:R:3 #=T CELL(abcABC):=T 1.889726e+02=T 90.00000=T Traj:=T positionsangstrom=T Step:=T 0=T Bead:=T pbc="F F F"
C      -43.42580000     -33.86450000     -67.57530000
C      -43.80520000     -34.76120000     -68.54400000
C      -45.17820000     -34.94100000     -68.76970000
C      -46.16700000     -34.26610000     -67.97770000
C      -45.74130000     -33.23010000     -67.14200000
C      -44.40270000     -33.05320000     -66.96870000
H      -42.37040000     -33.80970000     -67.37170000
H      -45.43080000     -35.77060000     -69.43380000
H      -46.51260000     -32.67980000     -66.58100000
H      -43.93300000     -32.33870000     -66.28590000
C      -47.60620000     -34.50620000     -68.11230000
H      -48.25600000     -33.70010000     -67.66890000
H      -47.77090000     -35.46500000     -67.53270000
C      -42.70580000     -35.54820000     -69.31190000
H      -41.83770000     -35.04900000     -69.13810000
H      -42.65520000     -36.54520000     -68.82250000
S      -48.25540000     -34.95470000     -69.78850000
S      -43.00200000     -35.95080000     -71.09110000
C      -47.64020000     -33.59280000     -70.76190000
H      -48.42480000     -32.90290000     -71.09150000
H      -47.05810000     -32.90510000     -70.10720000
C      -42.91740000     -34.31800000     -71.99330000
H      -43.53360000     -34.67030000     -72.87020000
H      -41.91360000     -34.24070000     -72.33140000
C      -43.56390000     -33.07880000     -71.45890000
H      -44.42260000     -33.27930000     -70.81460000
H      -42.86370000     -32.41100000     -70.88220000
C      -46.86250000     -34.15500000     -71.97540000
H      -47.54020000     -34.82900000     -72.50970000
H      -46.03160000     -34.78340000     -71.64590000
C      -46.56520000     -33.10820000     -73.02310000
C      -47.53800000     -32.81480000     -74.00290000
C      -45.44990000     -32.24410000     -73.23050000
H      -48.50790000     -33.35650000     -74.19360000
C      -45.53220000     -31.37980000     -74.31720000
C      -44.09350000     -32.23470000     -72.58190000
C      -43.35590000     -31.26890000     -73.28460000
S      -47.08920000     -31.46100000     -75.11260000
S      -44.12700000     -30.32290000     -74.49280000
H      -42.34260000     -30.95170000     -73.00190000
