40
Properties=species:S:1:pos:R:3 #=T CELL(abcABC):=T 1.889726e+02=T 90.00000=T Traj:=T positionsangstrom=T Step:=T 0=T Bead:=T pbc="F F F"
C      -48.30110000     -31.77810000     -72.71010000
C      -47.01170000     -31.77940000     -73.43120000
C      -46.45770000     -32.99810000     -73.82530000
C      -47.19830000     -34.19220000     -73.70910000
C      -48.48440000     -34.19000000     -73.10660000
C      -48.97540000     -33.01480000     -72.57940000
H      -48.85290000     -30.84410000     -72.39120000
H      -45.52840000     -33.04160000     -74.38540000
H      -48.90350000     -35.14230000     -72.93610000
H      -49.83900000     -33.12410000     -71.97220000
C      -46.46010000     -35.38190000     -74.15680000
H      -45.36600000     -35.12290000     -74.42700000
H      -46.92410000     -35.79040000     -75.09780000
C      -46.39150000     -30.45260000     -73.72330000
H      -46.84470000     -29.82700000     -74.49650000
H      -46.39130000     -29.87790000     -72.72600000
S      -46.41240000     -36.82630000     -72.96670000
S      -44.49290000     -30.53520000     -74.00860000
C      -45.93860000     -36.07860000     -71.34730000
H      -46.60410000     -35.27240000     -71.06010000
H      -46.05790000     -36.90400000     -70.57120000
C      -43.90990000     -30.85260000     -72.33920000
H      -44.44030000     -30.09240000     -71.67160000
H      -42.87460000     -30.80350000     -72.38760000
C      -44.35210000     -32.25900000     -71.83780000
H      -45.42480000     -32.30790000     -71.96920000
H      -43.94590000     -33.03970000     -72.35530000
C      -44.52230000     -35.57080000     -71.25170000
H      -44.45890000     -34.81790000     -72.05120000
H      -43.79240000     -36.35460000     -71.56080000
C      -44.19310000     -34.98060000     -69.90740000
C      -43.98060000     -35.74710000     -68.81880000
C      -44.09520000     -33.61030000     -69.54320000
H      -43.93270000     -36.84660000     -68.69230000
C      -43.95010000     -33.38180000     -68.17050000
C      -44.10640000     -32.38360000     -70.30720000
C      -44.02570000     -31.29460000     -69.46490000
S      -43.67270000     -34.87580000     -67.31540000
S      -43.82380000     -31.67990000     -67.80130000
H      -43.94660000     -30.24700000     -69.76690000
