40
Properties=species:S:1:pos:R:3 #=T CELL(abcABC):=T 1.889726e+02=T 90.00000=T Traj:=T positionsangstrom=T Step:=T 0=T Bead:=T pbc="F F F"
C      -44.73850000     -29.65210000     -71.95970000
C      -43.78750000     -30.64910000     -72.35080000
C      -44.09790000     -31.55720000     -73.36110000
C      -45.36280000     -31.46450000     -74.02030000
C      -46.38070000     -30.54510000     -73.47600000
C      -46.06560000     -29.69220000     -72.39870000
H      -44.35560000     -28.95290000     -71.18700000
H      -43.39280000     -32.16790000     -73.80940000
H      -47.35170000     -30.35180000     -73.94870000
H      -46.85180000     -29.00940000     -72.02800000
C      -45.75650000     -32.28650000     -75.20340000
H      -45.31250000     -31.92370000     -76.19290000
H      -46.85280000     -32.28870000     -75.36430000
C      -42.40720000     -30.58710000     -71.76030000
H      -41.75170000     -30.94760000     -72.53560000
H      -42.02780000     -29.53500000     -71.65890000
S      -45.12590000     -33.96440000     -75.14110000
S      -42.31080000     -31.39500000     -70.03160000
C      -46.16210000     -34.73780000     -73.87240000
H      -47.21970000     -34.51730000     -73.97660000
H      -46.07800000     -35.79740000     -74.04680000
C      -43.40910000     -32.91700000     -70.22700000
H      -43.05030000     -33.69790000     -69.54540000
H      -43.52590000     -33.32770000     -71.21110000
C      -44.73100000     -32.49950000     -69.61300000
H      -44.71940000     -31.76180000     -68.83850000
H      -45.36640000     -31.95640000     -70.31660000
C      -45.69110000     -34.32060000     -72.45260000
H      -46.02620000     -33.26750000     -72.10820000
H      -44.55580000     -34.29690000     -72.53710000
C      -46.13280000     -35.16940000     -71.30480000
C      -46.76190000     -36.37040000     -71.43900000
C      -46.08610000     -34.80850000     -69.89970000
H      -46.99990000     -36.86950000     -72.36450000
C      -46.58120000     -35.79780000     -69.07010000
C      -45.61180000     -33.71540000     -69.13830000
C      -45.75250000     -33.91720000     -67.74930000
S      -47.34170000     -37.14320000     -69.98120000
S      -46.60660000     -35.36920000     -67.34600000
H      -45.27210000     -33.30370000     -66.99570000
