40
Properties=species:S:1:pos:R:3 #=T CELL(abcABC):=T 1.889726e+02=T 90.00000=T Traj:=T positionsangstrom=T Step:=T 0=T Bead:=T pbc="F F F"
C      -48.04380000     -31.71870000     -72.77930000
C      -47.09210000     -31.89000000     -73.77200000
C      -46.72570000     -33.11400000     -74.19860000
C      -47.37270000     -34.23920000     -73.59490000
C      -48.42850000     -34.12110000     -72.74690000
C      -48.77250000     -32.80530000     -72.28200000
H      -48.23760000     -30.69730000     -72.52230000
H      -46.02680000     -33.33890000     -75.05420000
H      -49.09600000     -34.91880000     -72.42600000
H      -49.57920000     -32.75750000     -71.55730000
C      -47.14180000     -35.62730000     -74.13110000
H      -46.63160000     -35.73160000     -75.10580000
H      -48.12090000     -36.06280000     -74.32990000
C      -46.36300000     -30.63550000     -74.45770000
H      -46.42580000     -30.48570000     -75.49720000
H      -46.85960000     -29.76470000     -73.91160000
S      -46.24940000     -36.77880000     -73.03660000
S      -44.57610000     -30.53120000     -74.01770000
C      -45.75100000     -35.87860000     -71.46260000
H      -46.35550000     -34.96970000     -71.52110000
H      -46.07640000     -36.42090000     -70.59300000
C      -44.52210000     -30.69850000     -72.11670000
H      -45.47040000     -30.41520000     -71.69880000
H      -43.74050000     -29.97990000     -71.72290000
C      -44.03800000     -32.10590000     -71.68920000
H      -44.74440000     -32.79450000     -72.08940000
H      -43.05880000     -32.26480000     -72.20420000
C      -44.27930000     -35.59500000     -71.29460000
H      -43.87350000     -34.91330000     -72.06780000
H      -43.74150000     -36.47730000     -71.31940000
C      -44.15910000     -34.99570000     -69.90530000
C      -44.26420000     -35.79450000     -68.76120000
C      -43.92800000     -33.54940000     -69.49400000
H      -44.26520000     -36.91120000     -68.70800000
C      -43.77950000     -33.47590000     -68.13320000
C      -43.83810000     -32.27560000     -70.19160000
C      -43.51400000     -31.24420000     -69.28240000
S      -44.19610000     -34.87680000     -67.32040000
S      -43.46360000     -31.80730000     -67.65340000
H      -43.23270000     -30.26790000     -69.47250000
