40
Properties=species:S:1:pos:R:3 #=T CELL(abcABC):=T 1.889726e+02=T 90.00000=T Traj:=T positionsangstrom=T Step:=T 0=T Bead:=T pbc="F F F"
C      -46.05920000     -30.31580000     -73.51220000
C      -44.88850000     -31.00390000     -73.73800000
C      -43.88790000     -30.91670000     -72.74400000
C      -44.01120000     -30.09440000     -71.61430000
C      -45.23450000     -29.37700000     -71.42130000
C      -46.23610000     -29.44590000     -72.39530000
H      -46.78780000     -30.23760000     -74.29180000
H      -42.97660000     -31.49790000     -72.95200000
H      -45.29470000     -28.56890000     -70.58560000
H      -47.22330000     -29.09070000     -72.17980000
C      -42.81710000     -30.15040000     -70.71350000
H      -42.37770000     -29.17060000     -70.53050000
H      -41.95800000     -30.70220000     -71.17240000
C      -44.62980000     -31.86630000     -74.96270000
H      -44.93120000     -31.23210000     -75.83870000
H      -43.50320000     -32.12100000     -75.10320000
S      -43.23100000     -30.94110000     -69.07560000
S      -45.71190000     -33.40520000     -75.23560000
C      -44.45630000     -32.29250000     -69.43810000
H      -45.01210000     -32.47300000     -68.52260000
H      -45.11020000     -31.89880000     -70.15750000
C      -45.42460000     -34.40930000     -73.71000000
H      -44.37440000     -34.34150000     -73.37820000
H      -45.69380000     -35.47090000     -74.00300000
C      -46.45150000     -33.98050000     -72.64510000
H      -46.11270000     -33.11710000     -72.07980000
H      -47.41030000     -33.81690000     -73.14390000
C      -43.77470000     -33.54020000     -70.00840000
H      -42.84630000     -33.74930000     -69.45050000
H      -43.55120000     -33.35780000     -71.11850000
C      -44.63610000     -34.72490000     -69.75840000
C      -44.28520000     -35.40910000     -68.62140000
C      -45.79940000     -35.32250000     -70.39510000
H      -43.53500000     -35.04890000     -67.88570000
C      -46.36750000     -36.33120000     -69.62350000
C      -46.67770000     -35.05110000     -71.56860000
C      -47.77790000     -35.85200000     -71.66830000
S      -45.51030000     -36.70930000     -68.22000000
S      -47.82530000     -37.11600000     -70.37800000
H      -48.61530000     -35.73600000     -72.28900000
