40
Properties=species:S:1:pos:R:3 #=T CELL(abcABC):=T 1.889726e+02=T 90.00000=T Traj:=T positionsangstrom=T Step:=T 0=T Bead:=T pbc="F F F"
C      -48.22060000     -31.83580000     -72.64030000
C      -47.11190000     -31.77220000     -73.62810000
C      -46.56140000     -32.96570000     -74.06630000
C      -47.24600000     -34.17900000     -73.75140000
C      -48.41480000     -34.24250000     -72.94980000
C      -48.82290000     -33.05880000     -72.37920000
H      -48.44550000     -30.91080000     -72.08030000
H      -45.62980000     -33.08370000     -74.60440000
H      -48.88720000     -35.21480000     -72.82820000
H      -49.71070000     -33.04370000     -71.73660000
C      -46.65180000     -35.47510000     -74.29730000
H      -45.78220000     -35.15550000     -74.81100000
H      -47.36800000     -35.80990000     -75.04380000
C      -46.37620000     -30.44250000     -73.79380000
H      -46.89500000     -30.04730000     -74.70190000
H      -46.66880000     -29.76540000     -73.07230000
S      -46.45910000     -36.83950000     -73.06190000
S      -44.63030000     -30.56040000     -74.08100000
C      -45.98340000     -36.05750000     -71.41710000
H      -46.59800000     -35.17290000     -71.29730000
H      -46.24690000     -36.80080000     -70.67730000
C      -44.02710000     -30.68710000     -72.33720000
H      -44.55830000     -29.94030000     -71.63930000
H      -43.06610000     -30.29000000     -72.24280000
C      -43.97710000     -32.14640000     -71.75480000
H      -44.82280000     -32.74960000     -72.22510000
H      -43.08710000     -32.57490000     -72.26400000
C      -44.50570000     -35.65600000     -71.18940000
H      -44.10810000     -35.06420000     -71.94540000
H      -43.92670000     -36.66560000     -71.14160000
C      -44.20790000     -35.04010000     -69.85560000
C      -44.18170000     -35.77920000     -68.70400000
C      -44.05440000     -33.56550000     -69.56780000
H      -44.19740000     -36.87350000     -68.74880000
C      -43.78050000     -33.41910000     -68.18360000
C      -43.97990000     -32.27930000     -70.28070000
C      -43.85070000     -31.18430000     -69.39850000
S      -43.73930000     -34.85850000     -67.25470000
S      -43.73300000     -31.72500000     -67.70650000
H      -43.80630000     -30.09090000     -69.48850000
