40
Properties=species:S:1:pos:R:3 #=T CELL(abcABC):=T 1.889726e+02=T 90.00000=T Traj:=T positionsangstrom=T Step:=T 0=T Bead:=T pbc="F F F"
C      -46.04480000     -30.55430000     -73.57340000
C      -44.74940000     -31.09770000     -73.93210000
C      -43.76170000     -31.10400000     -72.93470000
C      -44.01940000     -30.40720000     -71.73780000
C      -45.21370000     -29.77300000     -71.46650000
C      -46.26680000     -29.87410000     -72.38700000
H      -46.79310000     -30.71360000     -74.36110000
H      -42.80240000     -31.57710000     -73.09110000
H      -45.22820000     -29.10620000     -70.60510000
H      -47.24650000     -29.45760000     -72.14890000
C      -42.84040000     -30.14800000     -70.80800000
H      -42.76890000     -29.09930000     -70.71560000
H      -41.99050000     -30.68910000     -71.23340000
C      -44.64120000     -31.82080000     -75.24350000
H      -45.10770000     -31.22620000     -75.93730000
H      -43.68210000     -32.09840000     -75.53820000
S      -43.16470000     -30.94650000     -69.10830000
S      -45.51850000     -33.60680000     -75.28550000
C      -44.52740000     -32.10290000     -69.45310000
H      -44.89470000     -32.46820000     -68.48330000
H      -45.47190000     -31.66020000     -69.91790000
C      -45.39330000     -34.40570000     -73.60100000
H      -44.40200000     -34.42150000     -73.19210000
H      -45.50490000     -35.46490000     -73.77830000
C      -46.46850000     -33.92720000     -72.56650000
H      -46.12650000     -33.01310000     -72.11830000
H      -47.41580000     -33.70130000     -73.05350000
C      -44.10670000     -33.33600000     -70.26050000
H      -43.05470000     -33.42400000     -70.25950000
H      -44.29970000     -33.18300000     -71.34380000
C      -44.72700000     -34.58170000     -69.71970000
C      -44.39530000     -35.22010000     -68.54000000
C      -45.91300000     -35.16370000     -70.27600000
H      -43.59460000     -35.00910000     -67.84380000
C      -46.43210000     -36.15850000     -69.43320000
C      -46.69160000     -34.97220000     -71.49400000
C      -47.71970000     -35.84490000     -71.57230000
S      -45.45350000     -36.51730000     -68.12270000
S      -47.90880000     -36.93010000     -70.17890000
H      -48.42640000     -35.88890000     -72.36590000
