40
Properties=species:S:1:pos:R:3 #=T CELL(abcABC):=T 1.889726e+02=T 90.00000=T Traj:=T positionsangstrom=T Step:=T 0=T Bead:=T pbc="F F F"
C      -46.05220000     -30.17750000     -73.48200000
C      -44.96140000     -31.00590000     -73.59470000
C      -43.88630000     -30.93560000     -72.68260000
C      -43.91730000     -30.01080000     -71.57980000
C      -45.02610000     -29.17750000     -71.52580000
C      -46.09950000     -29.28260000     -72.41570000
H      -47.00770000     -30.29610000     -74.08050000
H      -43.08500000     -31.68940000     -72.69510000
H      -45.22940000     -28.51660000     -70.60260000
H      -46.82610000     -28.44810000     -72.53830000
C      -42.87720000     -29.90660000     -70.46910000
H      -42.74680000     -28.87210000     -70.11710000
H      -41.87280000     -30.25240000     -70.74950000
C      -44.67560000     -31.81340000     -74.86450000
H      -44.69930000     -31.25250000     -75.77660000
H      -43.66300000     -32.11280000     -74.79820000
S      -43.35820000     -30.86010000     -68.98970000
S      -45.89500000     -33.14580000     -75.22540000
C      -44.38950000     -32.27520000     -69.48640000
H      -44.86080000     -32.49990000     -68.51920000
H      -45.19460000     -31.95730000     -70.15440000
C      -45.67800000     -34.30400000     -73.77110000
H      -44.64900000     -34.38210000     -73.50620000
H      -46.16240000     -35.22520000     -74.05340000
C      -46.38520000     -33.85270000     -72.45220000
H      -45.73700000     -33.02750000     -72.09190000
H      -47.36330000     -33.35000000     -72.66810000
C      -43.83550000     -33.70560000     -70.10680000
H      -42.82800000     -33.79260000     -69.72460000
H      -43.88240000     -33.64240000     -71.18860000
C      -44.61300000     -34.90600000     -69.68100000
C      -44.41030000     -35.63910000     -68.52480000
C      -45.75690000     -35.43580000     -70.35770000
H      -43.52840000     -35.62350000     -67.88500000
C      -46.31330000     -36.58300000     -69.74360000
C      -46.52360000     -35.07710000     -71.57110000
C      -47.51570000     -35.97020000     -71.79260000
S      -45.45780000     -37.00180000     -68.32490000
S      -47.74600000     -37.19250000     -70.56230000
H      -48.23930000     -36.07940000     -72.59150000
