40
Properties=species:S:1:pos:R:3 #=T CELL(abcABC):=T 1.889726e+02=T 90.00000=T Traj:=T positionsangstrom=T Step:=T 0=T Bead:=T pbc="F F F"
C      -48.02450000     -31.63440000     -72.94980000
C      -47.03520000     -31.88780000     -73.94030000
C      -46.77970000     -33.23140000     -74.18950000
C      -47.55220000     -34.27930000     -73.61490000
C      -48.53730000     -33.97260000     -72.64220000
C      -48.74650000     -32.62620000     -72.24160000
H      -47.98210000     -30.70470000     -72.51520000
H      -45.88140000     -33.62420000     -74.68840000
H      -49.14120000     -34.86170000     -72.30490000
H      -49.43830000     -32.44950000     -71.45390000
C      -47.29110000     -35.65470000     -74.15600000
H      -46.79520000     -35.52610000     -75.17130000
H      -48.27600000     -36.08890000     -74.30850000
C      -46.26850000     -30.71410000     -74.44250000
H      -46.16270000     -30.74180000     -75.50090000
H      -46.79450000     -29.77740000     -74.16410000
S      -46.14490000     -36.78890000     -73.18730000
S      -44.43510000     -30.62950000     -73.94450000
C      -45.95310000     -35.93550000     -71.57740000
H      -46.57020000     -35.05320000     -71.54850000
H      -46.30290000     -36.57380000     -70.67410000
C      -44.44110000     -30.80450000     -72.12020000
H      -45.48680000     -30.70610000     -71.80730000
H      -43.96990000     -29.93960000     -71.67570000
C      -43.99590000     -32.10440000     -71.62180000
H      -44.56510000     -32.98360000     -71.99170000
H      -43.00210000     -32.34750000     -72.05330000
C      -44.52790000     -35.45470000     -71.26260000
H      -44.15210000     -34.71060000     -72.00190000
H      -43.85640000     -36.32880000     -71.39500000
C      -44.32620000     -34.88430000     -69.88100000
C      -44.36660000     -35.74880000     -68.80360000
C      -44.00690000     -33.57030000     -69.46700000
H      -44.74060000     -36.73690000     -68.79600000
C      -43.86100000     -33.41700000     -68.11250000
C      -43.84240000     -32.29820000     -70.14050000
C      -43.64950000     -31.28220000     -69.25820000
S      -43.95530000     -34.89550000     -67.24760000
S      -43.46520000     -31.77090000     -67.60260000
H      -43.62760000     -30.28010000     -69.68570000
