40
Properties=species:S:1:pos:R:3 #=T CELL(abcABC):=T 1.889726e+02=T 90.00000=T Traj:=T positionsangstrom=T Step:=T 0=T Bead:=T pbc="F F F"
C      -48.71540000     -33.81240000     -70.89960000
C      -47.96300000     -35.04880000     -70.97220000
C      -47.19500000     -35.35070000     -69.80580000
C      -47.17370000     -34.46370000     -68.65650000
C      -47.86240000     -33.26380000     -68.71310000
C      -48.66850000     -32.90400000     -69.81820000
H      -49.26940000     -33.59130000     -71.79100000
H      -46.72390000     -36.33120000     -69.84700000
H      -47.91360000     -32.75210000     -67.80370000
H      -49.31640000     -31.99540000     -69.79030000
C      -46.36890000     -35.02680000     -67.45630000
H      -46.53060000     -36.09640000     -67.26970000
H      -46.69940000     -34.44320000     -66.49280000
C      -48.26660000     -35.97780000     -72.12960000
H      -48.56950000     -36.96940000     -71.86870000
H      -49.09500000     -35.58890000     -72.77790000
S      -44.59150000     -34.66970000     -67.67520000
S      -46.82550000     -36.23630000     -73.20270000
C      -44.46590000     -33.11530000     -68.59100000
H      -45.23880000     -32.30340000     -68.35400000
H      -43.43320000     -32.71090000     -68.33970000
C      -45.93240000     -34.54470000     -73.27490000
H      -46.23860000     -33.90520000     -72.43930000
H      -46.31550000     -33.96740000     -74.14620000
C      -44.43910000     -34.68830000     -73.26860000
H      -44.08930000     -35.23240000     -72.35640000
H      -44.15140000     -35.34890000     -74.15770000
C      -44.42790000     -33.44230000     -70.11450000
H      -45.40440000     -33.80340000     -70.54510000
H      -43.73870000     -34.33880000     -70.30580000
C      -43.91280000     -32.28280000     -70.94600000
C      -43.65020000     -31.04270000     -70.46360000
C      -43.70810000     -32.31470000     -72.39670000
H      -43.81950000     -30.76990000     -69.40780000
C      -43.37610000     -31.01620000     -72.93090000
C      -43.76310000     -33.29370000     -73.41480000
C      -43.49550000     -32.85320000     -74.72430000
S      -43.16310000     -29.75440000     -71.65870000
S      -43.24720000     -31.12700000     -74.77740000
H      -43.57970000     -33.49170000     -75.55830000
