40
Properties=species:S:1:pos:R:3 #=T CELL(abcABC):=T 1.889726e+02=T 90.00000=T Traj:=T positionsangstrom=T Step:=T 0=T Bead:=T pbc="F F F"
C      -47.73720000     -31.65850000     -72.99030000
C      -46.66050000     -31.95050000     -73.80370000
C      -46.40290000     -33.27240000     -74.25370000
C      -47.29930000     -34.34970000     -73.86440000
C      -48.53230000     -33.97890000     -73.15840000
C      -48.68810000     -32.69950000     -72.68250000
H      -47.82700000     -30.75940000     -72.47580000
H      -45.50100000     -33.55840000     -74.78050000
H      -49.10950000     -34.78630000     -72.75800000
H      -49.49730000     -32.52860000     -72.02380000
C      -46.96560000     -35.74600000     -74.30360000
H      -46.58010000     -35.81640000     -75.30900000
H      -47.83960000     -36.40170000     -74.13550000
C      -45.78630000     -30.80160000     -74.34730000
H      -45.91520000     -30.63520000     -75.39970000
H      -46.13180000     -29.79230000     -73.84280000
S      -45.52470000     -36.42400000     -73.31770000
S      -44.05120000     -30.97650000     -74.00470000
C      -45.47890000     -35.74430000     -71.58960000
H      -46.11880000     -34.88580000     -71.46060000
H      -45.93380000     -36.53750000     -70.95140000
C      -44.10530000     -30.78300000     -72.15020000
H      -44.95560000     -30.13360000     -71.85720000
H      -43.12050000     -30.29980000     -71.93460000
C      -44.20270000     -32.15600000     -71.54590000
H      -45.02400000     -32.66810000     -72.16690000
H      -43.28400000     -32.64540000     -71.87280000
C      -44.08810000     -35.53190000     -71.08040000
H      -43.64100000     -34.92750000     -71.80550000
H      -43.62050000     -36.54550000     -71.02680000
C      -44.07770000     -34.90720000     -69.71880000
C      -43.91830000     -35.72440000     -68.60690000
C      -44.31070000     -33.52760000     -69.33180000
H      -43.66860000     -36.76370000     -68.68920000
C      -44.44490000     -33.35660000     -67.90240000
C      -44.43630000     -32.28050000     -70.05650000
C      -44.86460000     -31.26810000     -69.21610000
S      -44.10240000     -34.82460000     -67.07920000
S      -44.89480000     -31.75640000     -67.50340000
H      -45.13450000     -30.21760000     -69.53700000
