40
Properties=species:S:1:pos:R:3 #=T CELL(abcABC):=T 1.889726e+02=T 90.00000=T Traj:=T positionsangstrom=T Step:=T 0=T Bead:=T pbc="F F F"
C      -47.76940000     -31.67070000     -73.08990000
C      -46.73720000     -31.94160000     -74.00070000
C      -46.49580000     -33.28240000     -74.36090000
C      -47.34660000     -34.36820000     -73.78930000
C      -48.35160000     -34.09320000     -72.88960000
C      -48.56380000     -32.69890000     -72.58420000
H      -47.95700000     -30.66350000     -72.81680000
H      -45.74770000     -33.55160000     -75.08220000
H      -49.04410000     -34.83180000     -72.48600000
H      -49.48530000     -32.43460000     -72.03940000
C      -47.01840000     -35.79110000     -74.14720000
H      -47.00970000     -36.05900000     -75.19200000
H      -47.90960000     -36.36640000     -73.78500000
C      -45.81850000     -30.88150000     -74.41260000
H      -45.69300000     -31.00510000     -75.49670000
H      -46.23750000     -29.88280000     -74.32780000
S      -45.36400000     -36.28520000     -73.35160000
S      -44.06220000     -30.89500000     -73.93110000
C      -45.43950000     -35.44990000     -71.71590000
H      -45.87900000     -34.46470000     -71.91720000
H      -46.13450000     -36.03330000     -71.11060000
C      -43.98890000     -30.97500000     -72.09020000
H      -44.59760000     -30.15150000     -71.71480000
H      -42.97170000     -30.79540000     -71.79880000
C      -44.57020000     -32.23440000     -71.58450000
H      -45.62220000     -32.32010000     -71.91490000
H      -44.10680000     -33.11690000     -72.04200000
C      -44.10100000     -35.51470000     -71.05730000
H      -43.32660000     -35.02490000     -71.62700000
H      -43.67060000     -36.54730000     -71.05240000
C      -44.10580000     -34.94590000     -69.66750000
C      -44.02480000     -35.77390000     -68.58230000
C      -44.32450000     -33.59300000     -69.36840000
H      -43.81790000     -36.81170000     -68.48800000
C      -44.34850000     -33.39290000     -67.97810000
C      -44.51160000     -32.36490000     -70.08350000
C      -44.79280000     -31.31410000     -69.27730000
S      -44.22090000     -34.84400000     -67.05610000
S      -44.77100000     -31.73810000     -67.52350000
H      -44.93680000     -30.26840000     -69.57940000
