40
Properties=species:S:1:pos:R:3 #=T CELL(abcABC):=T 1.889726e+02=T 90.00000=T Traj:=T positionsangstrom=T Step:=T 0=T Bead:=T pbc="F F F"
C      -41.95240000     -32.86740000     -69.89020000
C      -42.28660000     -34.23460000     -70.04030000
C      -43.26200000     -34.74030000     -69.16810000
C      -44.04140000     -33.96320000     -68.28040000
C      -43.72290000     -32.60620000     -68.17890000
C      -42.70520000     -32.10530000     -68.97060000
H      -41.26680000     -32.30290000     -70.60800000
H      -43.52390000     -35.84920000     -69.31150000
H      -44.23900000     -31.94430000     -67.54570000
H      -42.51260000     -31.08700000     -68.90200000
C      -45.15390000     -34.61030000     -67.51850000
H      -45.56710000     -33.88560000     -66.86560000
H      -44.79250000     -35.45780000     -66.96310000
C      -41.56630000     -35.18840000     -70.97420000
H      -40.76740000     -34.69020000     -71.55500000
H      -41.20370000     -36.00560000     -70.41220000
S      -46.57060000     -35.30480000     -68.51670000
S      -42.66410000     -35.95710000     -72.26340000
C      -46.91460000     -33.82980000     -69.56440000
H      -47.57790000     -33.11530000     -69.09540000
H      -45.93820000     -33.35620000     -69.78850000
C      -43.52250000     -34.56160000     -73.15000000
H      -43.52190000     -34.79760000     -74.18980000
H      -43.09690000     -33.56200000     -72.97470000
C      -44.98710000     -34.45830000     -72.69300000
H      -45.51070000     -35.31560000     -73.13930000
H      -45.11660000     -34.51840000     -71.61590000
C      -47.81560000     -34.16250000     -70.83490000
H      -48.80810000     -34.28090000     -70.46430000
H      -47.43040000     -35.06360000     -71.32040000
C      -47.86840000     -33.02290000     -71.78980000
C      -48.84890000     -32.09370000     -71.71710000
C      -46.84120000     -32.62020000     -72.77330000
H      -49.63590000     -31.96960000     -71.00920000
C      -47.18530000     -31.38680000     -73.36590000
C      -45.60390000     -33.15210000     -73.22360000
C      -45.05580000     -32.29110000     -74.17020000
S      -48.66160000     -30.77590000     -72.88350000
S      -45.99700000     -30.83010000     -74.59320000
H      -44.06720000     -32.41790000     -74.58410000
