40
Properties=species:S:1:pos:R:3 #=T CELL(abcABC):=T 1.889726e+02=T 90.00000=T Traj:=T positionsangstrom=T Step:=T 0=T Bead:=T pbc="F F F"
C      -42.36550000     -32.84490000     -69.89120000
C      -42.42490000     -34.24330000     -69.85560000
C      -43.27330000     -34.89860000     -68.91050000
C      -44.18750000     -34.10030000     -68.19350000
C      -44.07380000     -32.72380000     -68.21490000
C      -43.11080000     -32.11240000     -68.96890000
H      -41.65410000     -32.35330000     -70.50940000
H      -43.29990000     -35.97280000     -68.87920000
H      -44.63590000     -32.15900000     -67.45120000
H      -42.88330000     -31.01430000     -68.88880000
C      -45.25430000     -34.72100000     -67.41600000
H      -45.54990000     -34.06230000     -66.57900000
H      -44.91790000     -35.61150000     -66.88090000
C      -41.51550000     -35.09080000     -70.73150000
H      -40.70230000     -34.61740000     -71.15880000
H      -41.14180000     -35.93170000     -70.18530000
S      -46.73100000     -35.17750000     -68.47910000
S      -42.52020000     -35.92560000     -72.11650000
C      -46.93190000     -33.64540000     -69.58320000
H      -47.50440000     -32.88430000     -69.02470000
H      -45.92050000     -33.32510000     -69.72690000
C      -43.36230000     -34.54140000     -73.08220000
H      -43.59440000     -34.84610000     -74.11910000
H      -42.61560000     -33.73190000     -73.13990000
C      -44.69030000     -34.21910000     -72.36320000
H      -45.17710000     -35.20420000     -72.38660000
H      -44.54400000     -33.93640000     -71.25630000
C      -47.71330000     -34.02000000     -70.86030000
H      -48.76030000     -34.22100000     -70.57250000
H      -47.36330000     -34.97530000     -71.21830000
C      -47.81800000     -32.84310000     -71.83830000
C      -48.92450000     -32.05140000     -71.99550000
C      -46.77630000     -32.54220000     -72.77240000
H      -49.84550000     -32.08540000     -71.37560000
C      -47.13180000     -31.49400000     -73.63770000
C      -45.41280000     -33.04490000     -73.02500000
C      -44.80110000     -32.38660000     -74.12690000
S      -48.64730000     -30.77020000     -73.20260000
S      -45.85210000     -31.13100000     -74.84620000
H      -43.83440000     -32.77650000     -74.62970000
