40
Properties=species:S:1:pos:R:3 #=T CELL(abcABC):=T 1.889726e+02=T 90.00000=T Traj:=T positionsangstrom=T Step:=T 0=T Bead:=T pbc="F F F"
C      -47.77540000     -31.50290000     -72.90590000
C      -46.84510000     -31.85780000     -73.88300000
C      -46.61970000     -33.21230000     -74.12100000
C      -47.38430000     -34.16770000     -73.48270000
C      -48.47850000     -33.85290000     -72.65630000
C      -48.61470000     -32.48960000     -72.31520000
H      -48.00790000     -30.45880000     -72.71990000
H      -45.83390000     -33.45330000     -74.80880000
H      -49.03450000     -34.55910000     -72.14900000
H      -49.26140000     -32.24850000     -71.54310000
C      -47.14830000     -35.62830000     -73.67890000
H      -47.24120000     -35.89280000     -74.71970000
H      -47.86570000     -36.21310000     -73.08300000
C      -46.11170000     -30.89900000     -74.64240000
H      -46.10420000     -31.06060000     -75.71990000
H      -46.47320000     -29.84010000     -74.54860000
S      -45.36630000     -36.10460000     -73.33220000
S      -44.26530000     -30.81580000     -74.17310000
C      -45.37010000     -35.71300000     -71.56920000
H      -45.67040000     -34.61050000     -71.48650000
H      -46.02330000     -36.33690000     -71.02220000
C      -44.24890000     -30.96930000     -72.27780000
H      -45.13630000     -30.49580000     -71.74460000
H      -43.35280000     -30.36100000     -71.99240000
C      -43.98910000     -32.40790000     -71.80880000
H      -44.69780000     -33.03020000     -72.22900000
H      -42.97540000     -32.63430000     -72.04860000
C      -43.95210000     -35.76630000     -70.98170000
H      -43.23370000     -35.29420000     -71.55300000
H      -43.65600000     -36.84060000     -70.85960000
C      -43.94730000     -35.21040000     -69.58940000
C      -44.04060000     -35.89200000     -68.38670000
C      -44.15350000     -33.80070000     -69.43480000
H      -44.09190000     -36.98620000     -68.40470000
C      -44.39010000     -33.47630000     -68.08980000
C      -44.14530000     -32.51270000     -70.26960000
C      -44.40170000     -31.36850000     -69.51350000
S      -44.51820000     -34.88390000     -67.03780000
S      -44.56350000     -31.78230000     -67.78190000
H      -44.34880000     -30.34690000     -69.89940000
