40
Properties=species:S:1:pos:R:3 #=T CELL(abcABC):=T 1.889726e+02=T 90.00000=T Traj:=T positionsangstrom=T Step:=T 0=T Bead:=T pbc="F F F"
C      -41.64370000     -33.02750000     -70.03370000
C      -42.13360000     -34.36190000     -70.25760000
C      -43.27480000     -34.69730000     -69.53140000
C      -43.83850000     -33.87430000     -68.56150000
C      -43.23110000     -32.64320000     -68.21420000
C      -42.17640000     -32.25000000     -69.03550000
H      -40.88380000     -32.50080000     -70.55430000
H      -43.58350000     -35.67480000     -69.65950000
H      -43.73440000     -31.98800000     -67.44880000
H      -41.81890000     -31.19790000     -68.89370000
C      -44.87540000     -34.52580000     -67.57750000
H      -45.25460000     -33.84370000     -66.82530000
H      -44.40590000     -35.42370000     -67.12160000
C      -41.55210000     -35.36720000     -71.17650000
H      -40.66550000     -34.87950000     -71.57350000
H      -41.12950000     -36.22630000     -70.61870000
S      -46.36200000     -35.27340000     -68.43650000
S      -42.72250000     -35.95220000     -72.50170000
C      -46.85300000     -33.90200000     -69.55160000
H      -47.25980000     -33.05970000     -68.89410000
H      -45.94870000     -33.43510000     -69.94590000
C      -43.60120000     -34.42220000     -73.06600000
H      -43.48210000     -34.37610000     -74.17150000
H      -43.01200000     -33.56320000     -72.76540000
C      -45.06900000     -34.32050000     -72.71960000
H      -45.55170000     -35.20920000     -73.09420000
H      -45.11900000     -34.37930000     -71.64760000
C      -47.76650000     -34.18700000     -70.71170000
H      -48.72690000     -34.51710000     -70.29510000
H      -47.45510000     -35.11000000     -71.26160000
C      -47.92340000     -33.01360000     -71.61440000
C      -48.92940000     -32.15330000     -71.49440000
C      -46.97270000     -32.51330000     -72.60380000
H      -49.69510000     -32.29380000     -70.69350000
C      -47.42280000     -31.35430000     -73.25230000
C      -45.70950000     -33.00620000     -73.16980000
C      -45.27000000     -32.24790000     -74.22690000
S      -48.93400000     -30.80760000     -72.56640000
S      -46.35730000     -30.83150000     -74.56720000
H      -44.49870000     -32.36070000     -74.86960000
