40
Properties=species:S:1:pos:R:3 #=T CELL(abcABC):=T 1.889726e+02=T 90.00000=T Traj:=T positionsangstrom=T Step:=T 0=T Bead:=T pbc="F F F"
C      -49.14510000     -35.12700000     -73.51870000
C      -48.50770000     -34.04080000     -72.87870000
C      -47.30940000     -33.44960000     -73.24940000
C      -46.68120000     -34.00830000     -74.37480000
C      -47.16900000     -35.22230000     -74.91480000
C      -48.40290000     -35.79310000     -74.51260000
H      -50.06330000     -35.49720000     -73.25990000
H      -46.94080000     -32.54090000     -72.77770000
H      -46.56660000     -35.77900000     -75.69540000
H      -48.74810000     -36.70180000     -75.05040000
C      -45.46480000     -33.33240000     -75.02340000
H      -45.24030000     -32.26530000     -74.75890000
H      -45.61140000     -33.40910000     -76.15790000
C      -49.18940000     -33.54720000     -71.62390000
H      -50.31380000     -33.63260000     -71.77190000
H      -48.89570000     -34.22170000     -70.80230000
S      -43.90110000     -34.26630000     -74.73530000
S      -48.75920000     -31.86750000     -71.05320000
C      -43.22790000     -33.80360000     -73.09070000
H      -42.21060000     -34.16880000     -73.03400000
H      -43.03940000     -32.71210000     -73.17420000
C      -47.69420000     -32.04260000     -69.59710000
H      -48.14330000     -32.66780000     -68.82250000
H      -47.49950000     -30.99800000     -69.30770000
C      -46.30530000     -32.61070000     -70.04890000
H      -46.34450000     -33.76400000     -70.20950000
H      -46.05990000     -32.20160000     -70.98890000
C      -44.01490000     -34.34290000     -71.88430000
H      -44.01250000     -35.43720000     -72.04050000
H      -45.06450000     -33.99040000     -72.01130000
C      -43.28450000     -33.95100000     -70.59390000
C      -41.94510000     -34.21130000     -70.35600000
C      -43.77450000     -33.10310000     -69.49750000
H      -41.25290000     -34.70990000     -71.00540000
C      -42.78620000     -32.81000000     -68.58260000
C      -45.04780000     -32.43500000     -69.14680000
C      -44.94200000     -31.74730000     -67.97490000
S      -41.26020000     -33.62720000     -68.90000000
S      -43.29180000     -31.84840000     -67.23090000
H      -45.72170000     -31.06580000     -67.52970000
