40
Properties=species:S:1:pos:R:3 #=T CELL(abcABC):=T 1.889726e+02=T 90.00000=T Traj:=T positionsangstrom=T Step:=T 0=T Bead:=T pbc="F F F"
C      -41.66340000     -33.11510000     -70.07830000
C      -42.12390000     -34.41960000     -70.29280000
C      -43.19940000     -34.84820000     -69.48820000
C      -43.69150000     -33.98390000     -68.50410000
C      -43.16130000     -32.72290000     -68.22140000
C      -42.03920000     -32.35510000     -68.98400000
H      -40.89280000     -32.73220000     -70.75630000
H      -43.70720000     -35.80290000     -69.60670000
H      -43.41420000     -32.20620000     -67.34650000
H      -41.36860000     -31.47090000     -68.74610000
C      -44.79710000     -34.52130000     -67.60090000
H      -45.16090000     -33.77140000     -66.89170000
H      -44.47960000     -35.33750000     -66.93770000
C      -41.58270000     -35.23760000     -71.45220000
H      -41.01740000     -34.61960000     -72.11390000
H      -41.03090000     -36.11400000     -71.10270000
S      -46.22420000     -35.19480000     -68.43710000
S      -42.86560000     -35.87580000     -72.60740000
C      -46.70980000     -33.64420000     -69.38710000
H      -47.24140000     -33.00630000     -68.74310000
H      -45.80020000     -33.15880000     -69.69880000
C      -43.60430000     -34.35330000     -73.26090000
H      -43.77740000     -34.50590000     -74.30730000
H      -42.89020000     -33.50120000     -73.02410000
C      -44.97330000     -34.19120000     -72.61880000
H      -45.49540000     -35.13330000     -72.80520000
H      -44.89910000     -34.04570000     -71.50720000
C      -47.64790000     -34.10090000     -70.50730000
H      -48.56820000     -34.40160000     -70.12870000
H      -47.12550000     -34.93030000     -70.98650000
C      -47.94360000     -33.01870000     -71.52970000
C      -49.03770000     -32.20610000     -71.43490000
C      -47.03830000     -32.56290000     -72.56550000
H      -49.73730000     -32.25610000     -70.59140000
C      -47.52370000     -31.46770000     -73.27990000
C      -45.73440000     -32.93230000     -73.06160000
C      -45.25570000     -32.11540000     -74.07810000
S      -49.06770000     -30.93810000     -72.67720000
S      -46.45020000     -30.91210000     -74.53340000
H      -44.38380000     -32.11550000     -74.60010000
