40
Properties=species:S:1:pos:R:3 #=T CELL(abcABC):=T 1.889726e+02=T 90.00000=T Traj:=T positionsangstrom=T Step:=T 0=T Bead:=T pbc="F F F"
C      -48.86440000     -33.89690000     -71.05490000
C      -48.22800000     -35.13880000     -70.97470000
C      -47.35050000     -35.42500000     -69.94300000
C      -47.25980000     -34.60980000     -68.76800000
C      -47.94520000     -33.39800000     -68.79280000
C      -48.71450000     -33.01020000     -70.00750000
H      -49.42850000     -33.70040000     -71.89370000
H      -46.85460000     -36.39580000     -69.89400000
H      -47.87650000     -32.69780000     -67.95080000
H      -49.23180000     -32.08740000     -70.06150000
C      -46.43550000     -34.83710000     -67.54550000
H      -46.78220000     -35.80310000     -67.03120000
H      -46.60480000     -34.05100000     -66.74090000
C      -48.39440000     -36.17200000     -72.12290000
H      -48.47820000     -37.16400000     -71.64280000
H      -49.29640000     -36.12730000     -72.77310000
S      -44.63860000     -34.94370000     -67.88290000
S      -46.75970000     -36.25790000     -73.06660000
C      -44.16840000     -33.18060000     -68.64720000
H      -44.85700000     -32.40730000     -68.28790000
H      -43.24920000     -33.06190000     -68.11800000
C      -46.23550000     -34.47960000     -73.29520000
H      -46.74220000     -33.88890000     -72.51750000
H      -46.64430000     -34.01780000     -74.18810000
C      -44.70410000     -34.47240000     -73.27560000
H      -44.44620000     -35.01850000     -72.38480000
H      -44.32070000     -35.18340000     -74.00320000
C      -44.16800000     -33.42640000     -70.14110000
H      -45.14890000     -33.94510000     -70.28030000
H      -43.36260000     -34.15830000     -70.43530000
C      -43.92400000     -32.16400000     -70.93470000
C      -43.52490000     -30.94140000     -70.45930000
C      -43.79630000     -32.15530000     -72.33630000
H      -43.39630000     -30.64960000     -69.35790000
C      -43.30910000     -30.94130000     -72.81270000
C      -44.13660000     -33.09810000     -73.42620000
C      -43.67180000     -32.59740000     -74.60740000
S      -42.90430000     -29.76570000     -71.63670000
S      -42.97370000     -31.00700000     -74.52200000
H      -43.70230000     -33.26290000     -75.46400000
