40
Properties=species:S:1:pos:R:3 #=T CELL(abcABC):=T 1.889726e+02=T 90.00000=T Traj:=T positionsangstrom=T Step:=T 0=T Bead:=T pbc="F F F"
C      -47.58360000     -31.36810000     -72.94170000
C      -46.55950000     -31.68560000     -73.86390000
C      -46.41800000     -33.03280000     -74.26480000
C      -47.30980000     -34.00900000     -73.85860000
C      -48.32170000     -33.64270000     -72.96820000
C      -48.49360000     -32.34080000     -72.54640000
H      -47.58050000     -30.36050000     -72.55570000
H      -45.60050000     -33.35820000     -74.95290000
H      -48.98210000     -34.44460000     -72.58310000
H      -49.37160000     -32.06820000     -71.90540000
C      -47.13030000     -35.46780000     -74.18030000
H      -46.80050000     -35.62540000     -75.19490000
H      -48.05870000     -35.96480000     -73.91840000
C      -45.69060000     -30.68230000     -74.52780000
H      -45.71990000     -30.88920000     -75.59860000
H      -45.95650000     -29.70480000     -74.24810000
S      -45.77930000     -36.45530000     -73.24750000
S      -43.91300000     -30.95130000     -74.06010000
C      -45.74080000     -35.97410000     -71.47320000
H      -46.39590000     -35.09410000     -71.30600000
H      -46.19970000     -36.82360000     -70.91360000
C      -44.02490000     -31.03720000     -72.19510000
H      -44.92570000     -30.54660000     -71.91730000
H      -43.21310000     -30.51890000     -71.77250000
C      -44.15740000     -32.48900000     -71.72350000
H      -45.07380000     -33.09870000     -72.04250000
H      -43.36550000     -33.03970000     -72.14210000
C      -44.33120000     -35.70970000     -71.00380000
H      -44.00850000     -34.84590000     -71.59240000
H      -43.63490000     -36.60100000     -71.10930000
C      -44.43630000     -35.15870000     -69.62070000
C      -44.55180000     -35.88750000     -68.41790000
C      -44.32970000     -33.71920000     -69.37300000
H      -44.55960000     -36.91130000     -68.30670000
C      -44.39800000     -33.43190000     -67.97250000
C      -44.17410000     -32.54670000     -70.16040000
C      -44.14390000     -31.42570000     -69.37370000
S      -44.55690000     -34.89460000     -67.00940000
S      -44.38340000     -31.71530000     -67.64470000
H      -43.99570000     -30.41980000     -69.79620000
