40
Properties=species:S:1:pos:R:3 #=T CELL(abcABC):=T 1.889726e+02=T 90.00000=T Traj:=T positionsangstrom=T Step:=T 0=T Bead:=T pbc="F F F"
C      -47.84530000     -31.26170000     -73.38210000
C      -46.63360000     -31.66660000     -73.99560000
C      -46.43620000     -33.03820000     -74.25390000
C      -47.37010000     -34.03890000     -73.74720000
C      -48.49750000     -33.60890000     -73.06170000
C      -48.66700000     -32.21000000     -72.75200000
H      -47.89470000     -30.24050000     -72.99570000
H      -45.55040000     -33.38720000     -74.72890000
H      -49.28470000     -34.28220000     -72.83140000
H      -49.55700000     -31.83480000     -72.25640000
C      -47.14960000     -35.48270000     -74.06280000
H      -47.10590000     -35.64290000     -75.16420000
H      -47.96650000     -36.03010000     -73.61030000
C      -45.67810000     -30.63420000     -74.43670000
H      -45.66900000     -30.55870000     -75.49100000
H      -45.91840000     -29.64120000     -74.02300000
S      -45.59270000     -36.22220000     -73.37100000
S      -43.86350000     -31.06660000     -74.04570000
C      -45.76210000     -35.57820000     -71.59980000
H      -45.87030000     -34.49930000     -71.63130000
H      -46.69800000     -36.09110000     -71.12990000
C      -43.82400000     -31.14790000     -72.13840000
H      -44.56240000     -30.55930000     -71.77930000
H      -42.89180000     -30.66850000     -71.93270000
C      -44.09030000     -32.60870000     -71.65490000
H      -44.98470000     -32.95660000     -72.09910000
H      -43.22010000     -33.21770000     -71.99300000
C      -44.44820000     -35.87290000     -70.81760000
H      -43.64750000     -35.45820000     -71.41380000
H      -44.11750000     -36.89540000     -70.83760000
C      -44.38790000     -35.25430000     -69.44730000
C      -44.38080000     -35.90490000     -68.23290000
C      -44.43240000     -33.87980000     -69.27870000
H      -44.45510000     -37.01640000     -68.09980000
C      -44.39180000     -33.44680000     -67.96710000
C      -44.24980000     -32.69490000     -70.15410000
C      -44.36710000     -31.53460000     -69.42480000
S      -44.30240000     -34.86760000     -66.87990000
S      -44.56120000     -31.79190000     -67.69150000
H      -44.27230000     -30.46160000     -69.68930000
