40
Properties=species:S:1:pos:R:3 #=T CELL(abcABC):=T 1.889726e+02=T 90.00000=T Traj:=T positionsangstrom=T Step:=T 0=T Bead:=T pbc="F F F"
C      -48.97020000     -35.44550000     -72.46840000
C      -48.57670000     -34.09730000     -72.20360000
C      -47.61620000     -33.45780000     -72.98970000
C      -46.94890000     -34.13880000     -74.05570000
C      -47.23650000     -35.49250000     -74.21160000
C      -48.28530000     -36.12260000     -73.53470000
H      -49.67740000     -36.05350000     -71.88900000
H      -47.42990000     -32.39800000     -72.81180000
H      -46.78800000     -35.96580000     -75.07120000
H      -48.55340000     -37.15620000     -73.75940000
C      -46.04570000     -33.48970000     -74.97280000
H      -45.92110000     -32.37680000     -74.77590000
H      -46.57080000     -33.54950000     -75.94760000
C      -49.26350000     -33.34610000     -71.07130000
H      -50.37660000     -33.26790000     -71.37750000
H      -49.21590000     -33.91700000     -70.13030000
S      -44.34950000     -34.17530000     -75.05190000
S      -48.73480000     -31.61990000     -70.59630000
C      -43.58760000     -33.51530000     -73.40650000
H      -42.49290000     -33.45470000     -73.63500000
H      -43.92950000     -32.48700000     -73.31830000
C      -47.37040000     -31.99290000     -69.37300000
H      -47.85640000     -32.58830000     -68.58530000
H      -46.94030000     -31.10130000     -68.87780000
C      -46.21410000     -32.73570000     -70.11360000
H      -46.52300000     -33.73340000     -70.36270000
H      -46.11090000     -32.17980000     -71.09310000
C      -43.93450000     -34.29020000     -72.22560000
H      -43.62580000     -35.34240000     -72.30180000
H      -45.00020000     -34.18400000     -72.13080000
C      -43.16680000     -33.80110000     -71.02860000
C      -41.78220000     -33.97920000     -70.96810000
C      -43.65740000     -33.06030000     -69.87220000
H      -41.14480000     -34.59380000     -71.61670000
C      -42.58710000     -32.85550000     -68.99830000
C      -44.91520000     -32.67120000     -69.37330000
C      -44.72830000     -32.14270000     -68.09180000
S      -41.01030000     -33.30330000     -69.56020000
S      -43.06160000     -32.10560000     -67.53150000
H      -45.42210000     -31.72030000     -67.37430000
