40
Properties=species:S:1:pos:R:3 #=T CELL(abcABC):=T 1.889726e+02=T 90.00000=T Traj:=T positionsangstrom=T Step:=T 0=T Bead:=T pbc="F F F"
C      -47.51870000     -31.50780000     -72.82080000
C      -46.65370000     -31.99240000     -73.84770000
C      -46.75870000     -33.29200000     -74.28100000
C      -47.65910000     -34.15650000     -73.60980000
C      -48.34670000     -33.72350000     -72.49720000
C      -48.25270000     -32.42460000     -72.01570000
H      -47.41100000     -30.46260000     -72.51440000
H      -45.97750000     -33.59970000     -74.99920000
H      -48.97940000     -34.44140000     -71.91560000
H      -48.74660000     -32.14570000     -71.06840000
C      -47.52950000     -35.67410000     -73.89150000
H      -47.75190000     -35.97070000     -74.90430000
H      -48.15440000     -36.17790000     -73.17550000
C      -45.79780000     -30.92560000     -74.59250000
H      -45.66380000     -31.31850000     -75.60580000
H      -46.27490000     -29.96760000     -74.61750000
S      -45.81190000     -36.27350000     -73.56370000
S      -44.07610000     -30.68020000     -73.96050000
C      -45.67580000     -36.10330000     -71.64320000
H      -46.42060000     -35.39100000     -71.40290000
H      -45.97390000     -36.98990000     -71.06110000
C      -44.08170000     -30.75530000     -72.06600000
H      -44.86320000     -30.19240000     -71.59550000
H      -43.14230000     -30.27990000     -71.63270000
C      -44.10150000     -32.22510000     -71.59270000
H      -44.94360000     -32.83490000     -71.82860000
H      -43.22630000     -32.65680000     -72.17600000
C      -44.27380000     -35.49210000     -71.32280000
H      -44.07800000     -34.65170000     -71.94620000
H      -43.51020000     -36.28670000     -71.42740000
C      -44.33840000     -35.00130000     -69.90170000
C      -44.56460000     -35.84330000     -68.81630000
C      -44.15080000     -33.65190000     -69.43140000
H      -44.66220000     -36.96300000     -68.91170000
C      -44.24260000     -33.53450000     -68.03720000
C      -43.94220000     -32.39420000     -70.10260000
C      -43.89770000     -31.37900000     -69.22440000
S      -44.69640000     -35.00520000     -67.29540000
S      -44.04590000     -31.87280000     -67.48200000
H      -43.84760000     -30.29130000     -69.44850000
