40
Properties=species:S:1:pos:R:3 #=T CELL(abcABC):=T 1.889726e+02=T 90.00000=T Traj:=T positionsangstrom=T Step:=T 0=T Bead:=T pbc="F F F"
C      -48.99810000     -34.90800000     -71.11760000
C      -48.69600000     -33.57620000     -71.49140000
C      -48.00500000     -33.35320000     -72.68670000
C      -47.62310000     -34.42980000     -73.49200000
C      -47.84700000     -35.73790000     -73.06850000
C      -48.61270000     -35.99400000     -71.93710000
H      -49.54050000     -34.99010000     -70.19810000
H      -47.78730000     -32.28750000     -72.99400000
H      -47.55070000     -36.54380000     -73.67780000
H      -48.87990000     -36.98720000     -71.61920000
C      -46.93650000     -34.06650000     -74.81130000
H      -46.89460000     -32.98300000     -74.90210000
H      -47.40460000     -34.43590000     -75.68320000
C      -49.11440000     -32.42710000     -70.66060000
H      -50.03560000     -32.00340000     -70.95230000
H      -49.20170000     -32.72010000     -69.62850000
S      -45.14940000     -34.59250000     -74.92480000
S      -48.04960000     -30.88270000     -70.67480000
C      -44.37380000     -33.77860000     -73.34810000
H      -43.34900000     -33.86690000     -73.56680000
H      -44.67390000     -32.67420000     -73.32810000
C      -46.42640000     -31.47910000     -69.98540000
H      -46.55340000     -32.52480000     -69.72150000
H      -46.30060000     -30.94390000     -69.00240000
C      -45.17900000     -31.28770000     -70.93390000
H      -45.29990000     -31.88790000     -71.90380000
H      -44.85720000     -30.31280000     -71.27000000
C      -44.76840000     -34.45480000     -72.04920000
H      -44.83060000     -35.52170000     -72.25940000
H      -45.84400000     -34.17480000     -71.75580000
C      -43.77160000     -34.38410000     -70.91300000
C      -42.79690000     -35.34530000     -70.74740000
C      -43.43460000     -33.18600000     -70.23630000
H      -42.81420000     -36.37470000     -71.18600000
C      -42.27110000     -33.29830000     -69.44590000
C      -44.03030000     -31.87400000     -70.18000000
C      -43.28020000     -31.01990000     -69.34850000
S      -41.55150000     -34.86470000     -69.55320000
S      -41.87760000     -31.77820000     -68.59080000
H      -43.32510000     -29.99250000     -69.33190000
