40
Properties=species:S:1:pos:R:3 #=T CELL(abcABC):=T 1.889726e+02=T 90.00000=T Traj:=T positionsangstrom=T Step:=T 0=T Bead:=T pbc="F F F"
C      -48.84030000     -35.31830000     -71.93350000
C      -48.81540000     -33.95760000     -72.06710000
C      -47.96870000     -33.35380000     -73.04230000
C      -47.27890000     -34.14950000     -73.95380000
C      -47.40330000     -35.56240000     -73.90530000
C      -48.08140000     -36.12330000     -72.78010000
H      -49.47820000     -35.71430000     -71.16650000
H      -47.83930000     -32.22140000     -73.09930000
H      -46.80010000     -36.17060000     -74.63430000
H      -48.07210000     -37.22610000     -72.78000000
C      -46.39790000     -33.47730000     -74.95990000
H      -46.24950000     -32.35170000     -74.71600000
H      -46.64370000     -33.62200000     -76.03710000
C      -49.53280000     -33.14390000     -71.11920000
H      -50.42070000     -32.71830000     -71.53490000
H      -49.59690000     -33.81170000     -70.24620000
S      -44.67760000     -34.16870000     -75.02060000
S      -48.67670000     -31.56870000     -70.55840000
C      -43.73150000     -33.50500000     -73.54300000
H      -42.71410000     -33.44370000     -73.85550000
H      -44.12130000     -32.46890000     -73.35410000
C      -47.23280000     -32.09910000     -69.47370000
H      -47.38610000     -33.01510000     -68.95090000
H      -47.01430000     -31.43570000     -68.67060000
C      -45.97530000     -32.32240000     -70.33090000
H      -46.19810000     -33.18600000     -71.00880000
H      -45.95870000     -31.48670000     -71.05600000
C      -43.92030000     -34.39060000     -72.28170000
H      -43.58530000     -35.43750000     -72.47270000
H      -44.99300000     -34.41520000     -71.97880000
C      -43.03390000     -33.90010000     -71.13780000
C      -41.77890000     -34.42590000     -70.98010000
C      -43.42340000     -33.07360000     -70.01720000
H      -41.22260000     -34.96710000     -71.73090000
C      -42.40240000     -32.89650000     -69.12310000
C      -44.67330000     -32.34550000     -69.66620000
C      -44.39840000     -31.65120000     -68.46220000
S      -40.89970000     -33.83960000     -69.49260000
S      -42.90290000     -32.02010000     -67.72840000
H      -45.23350000     -31.05950000     -68.01780000
