40
Properties=species:S:1:pos:R:3 #=T CELL(abcABC):=T 1.889726e+02=T 90.00000=T Traj:=T positionsangstrom=T Step:=T 0=T Bead:=T pbc="F F F"
C      -48.76170000     -35.27840000     -71.79620000
C      -48.75720000     -33.88470000     -72.02470000
C      -48.04290000     -33.29780000     -73.03780000
C      -47.28440000     -34.14140000     -73.93470000
C      -47.17660000     -35.52450000     -73.63430000
C      -47.96140000     -36.08720000     -72.62980000
H      -49.24920000     -35.67780000     -70.94640000
H      -47.98900000     -32.23370000     -73.14630000
H      -46.50700000     -36.09700000     -74.30800000
H      -47.81010000     -37.14360000     -72.45160000
C      -46.48000000     -33.56270000     -75.06730000
H      -46.49810000     -32.50440000     -74.96950000
H      -46.91430000     -33.80710000     -75.97990000
C      -49.49120000     -32.92560000     -71.04240000
H      -50.43250000     -32.69080000     -71.56530000
H      -49.95240000     -33.52420000     -70.22640000
S      -44.70930000     -34.11450000     -75.04460000
S      -48.64040000     -31.43630000     -70.45710000
C      -44.16090000     -33.42360000     -73.44410000
H      -43.27360000     -32.80770000     -73.51120000
H      -44.93360000     -32.63550000     -73.23100000
C      -47.11220000     -32.14640000     -69.69220000
H      -47.40020000     -33.18600000     -69.36520000
H      -46.96550000     -31.45420000     -68.84280000
C      -45.84790000     -32.20290000     -70.53780000
H      -45.93360000     -33.04340000     -71.19910000
H      -45.63300000     -31.27060000     -71.07730000
C      -43.97240000     -34.57150000     -72.37980000
H      -43.44850000     -35.35350000     -72.92860000
H      -44.91960000     -34.99680000     -72.05830000
C      -43.07260000     -34.04560000     -71.11290000
C      -41.87650000     -34.65710000     -70.87140000
C      -43.43010000     -33.10420000     -70.09460000
H      -41.54920000     -35.58640000     -71.27030000
C      -42.39890000     -32.95980000     -69.21460000
C      -44.63690000     -32.35620000     -69.66720000
C      -44.37910000     -31.71500000     -68.42120000
S      -41.05830000     -34.06320000     -69.45420000
S      -42.74160000     -31.91140000     -67.91210000
H      -44.89890000     -30.76590000     -68.14480000
