40
Properties=species:S:1:pos:R:3 #=T CELL(abcABC):=T 1.889726e+02=T 90.00000=T Traj:=T positionsangstrom=T Step:=T 0=T Bead:=T pbc="F F F"
C      -48.53670000     -34.98500000     -71.19200000
C      -48.60770000     -33.65920000     -71.58290000
C      -47.92230000     -33.25370000     -72.74800000
C      -47.31390000     -34.22150000     -73.57330000
C      -47.31920000     -35.58960000     -73.23820000
C      -47.88710000     -35.92540000     -71.97810000
H      -48.98270000     -35.42690000     -70.26750000
H      -47.89070000     -32.17170000     -73.02230000
H      -46.84050000     -36.35230000     -73.87420000
H      -47.80770000     -37.01470000     -71.67770000
C      -46.71400000     -33.68180000     -74.86900000
H      -46.79470000     -32.57760000     -74.80640000
H      -47.22350000     -34.04960000     -75.70000000
C      -49.44870000     -32.65310000     -70.83070000
H      -50.19530000     -32.19580000     -71.42460000
H      -50.00140000     -33.24130000     -70.18120000
S      -44.96030000     -34.15260000     -75.21200000
S      -48.47880000     -31.21780000     -70.22470000
C      -44.07680000     -33.64820000     -73.66880000
H      -43.03870000     -33.69130000     -73.89570000
H      -44.24590000     -32.54790000     -73.44460000
C      -46.80240000     -31.92060000     -69.72890000
H      -46.99400000     -32.99300000     -69.47210000
H      -46.57010000     -31.37610000     -68.77530000
C      -45.64980000     -31.68220000     -70.69100000
H      -45.71500000     -32.28470000     -71.64460000
H      -45.65100000     -30.64670000     -70.92550000
C      -44.45400000     -34.48550000     -72.44120000
H      -44.48600000     -35.54330000     -72.62340000
H      -45.44460000     -34.23690000     -72.20730000
C      -43.51710000     -34.33510000     -71.22060000
C      -42.47830000     -35.13140000     -70.92780000
C      -43.51920000     -33.16480000     -70.30530000
H      -42.42590000     -36.10500000     -71.46260000
C      -42.46300000     -33.30830000     -69.36280000
C      -44.28990000     -31.95670000     -70.02110000
C      -43.78600000     -31.27650000     -68.92320000
S      -41.46390000     -34.70580000     -69.62360000
S      -42.26220000     -31.88880000     -68.33540000
H      -44.18280000     -30.33240000     -68.51960000
