40
Properties=species:S:1:pos:R:3 #=T CELL(abcABC):=T 1.889726e+02=T 90.00000=T Traj:=T positionsangstrom=T Step:=T 0=T Bead:=T pbc="F F F"
C      -44.61860000     -29.95230000     -72.15160000
C      -43.69700000     -31.03620000     -72.43160000
C      -44.02400000     -31.93860000     -73.40930000
C      -45.09290000     -31.72070000     -74.25470000
C      -45.88880000     -30.62520000     -74.06120000
C      -45.74830000     -29.75890000     -72.92300000
H      -44.48310000     -29.19150000     -71.27250000
H      -43.34980000     -32.75440000     -73.52200000
H      -46.75660000     -30.41280000     -74.66650000
H      -46.35990000     -28.90630000     -72.64120000
C      -45.38740000     -32.56520000     -75.41670000
H      -44.92630000     -32.26700000     -76.31100000
H      -46.46210000     -32.59870000     -75.60570000
C      -42.40170000     -31.19830000     -71.68330000
H      -42.00680000     -32.18910000     -71.73270000
H      -41.64920000     -30.49230000     -72.08050000
S      -44.82830000     -34.30220000     -75.16480000
S      -42.39040000     -30.80090000     -69.88360000
C      -45.81690000     -34.94180000     -73.73230000
H      -46.87390000     -34.64210000     -73.87930000
H      -45.75640000     -36.05620000     -73.88650000
C      -43.22390000     -32.31340000     -69.40020000
H      -42.86450000     -32.41740000     -68.37050000
H      -42.76400000     -33.17960000     -69.96380000
C      -44.87480000     -32.45440000     -69.69400000
H      -45.25040000     -31.63730000     -69.16240000
H      -44.97060000     -32.22770000     -70.71740000
C      -45.36050000     -34.71530000     -72.23810000
H      -45.06510000     -33.72400000     -72.06020000
H      -44.43330000     -35.27590000     -72.11370000
C      -46.27000000     -35.28890000     -71.25560000
C      -47.06550000     -36.41490000     -71.34050000
C      -46.23080000     -34.78080000     -69.89220000
H      -47.09400000     -37.06090000     -72.19760000
C      -47.08180000     -35.52060000     -69.06550000
C      -45.52140000     -33.72860000     -69.18340000
C      -45.95730000     -33.65840000     -67.87590000
S      -47.72260000     -36.96200000     -69.80490000
S      -47.03550000     -34.96040000     -67.42260000
H      -45.76190000     -32.92310000     -67.11330000
