40
Properties=species:S:1:pos:R:3 #=T CELL(abcABC):=T 1.889726e+02=T 90.00000=T Traj:=T positionsangstrom=T Step:=T 0=T Bead:=T pbc="F F F"
C      -44.41960000     -28.92170000     -72.44930000
C      -44.00460000     -30.21880000     -72.72090000
C      -43.48100000     -30.97580000     -71.66060000
C      -43.28410000     -30.46930000     -70.40070000
C      -43.79970000     -29.21890000     -70.14170000
C      -44.30930000     -28.36080000     -71.17830000
H      -44.91010000     -28.34400000     -73.23160000
H      -43.03830000     -31.95770000     -71.98210000
H      -43.55210000     -28.79730000     -69.06700000
H      -44.54460000     -27.28330000     -70.96670000
C      -42.56570000     -31.36540000     -69.37570000
H      -41.83990000     -30.82890000     -68.71150000
H      -41.99260000     -32.07880000     -69.98630000
C      -44.30630000     -30.77420000     -74.09140000
H      -44.19160000     -29.96820000     -74.82490000
H      -43.63060000     -31.65960000     -74.35770000
S      -43.76000000     -32.26930000     -68.16720000
S      -45.98020000     -31.33960000     -74.22530000
C      -44.82360000     -33.23560000     -69.25490000
H      -45.56440000     -33.73660000     -68.52420000
H      -45.46120000     -32.62180000     -69.94800000
C      -45.90660000     -32.99930000     -73.41960000
H      -44.90440000     -32.88960000     -72.91210000
H      -45.96310000     -33.73370000     -74.14800000
C      -46.89410000     -33.17960000     -72.28250000
H      -46.49530000     -32.65220000     -71.38030000
H      -47.82170000     -32.66530000     -72.65420000
C      -44.06730000     -34.25480000     -70.18450000
H      -43.12710000     -34.67060000     -69.83040000
H      -43.82420000     -33.71980000     -71.02380000
C      -44.93880000     -35.58650000     -70.41860000
C      -44.50320000     -36.85470000     -70.16260000
C      -46.23110000     -35.60000000     -71.14530000
H      -43.67000000     -37.16810000     -69.55680000
C      -46.70780000     -36.89700000     -71.23380000
C      -47.20600000     -34.64830000     -71.82160000
C      -48.32830000     -35.25420000     -72.25730000
S      -45.65250000     -38.13090000     -70.53020000
S      -48.36360000     -36.97090000     -71.88620000
H      -49.12370000     -34.82320000     -72.84020000
