40
Properties=species:S:1:pos:R:3 #=T CELL(abcABC):=T 1.889726e+02=T 90.00000=T Traj:=T positionsangstrom=T Step:=T 0=T Bead:=T pbc="F F F"
C      -49.51410000     -33.86650000     -70.70050000
C      -48.76190000     -32.91690000     -71.35510000
C      -48.05620000     -33.25650000     -72.48740000
C      -47.93890000     -34.58920000     -72.88970000
C      -48.62060000     -35.60700000     -72.16620000
C      -49.44510000     -35.21780000     -71.10480000
H      -50.11870000     -33.63320000     -69.83960000
H      -47.55450000     -32.41780000     -73.05770000
H      -48.62450000     -36.69910000     -72.48080000
H      -50.10640000     -35.86800000     -70.69040000
C      -47.18350000     -35.01960000     -74.10340000
H      -46.65760000     -34.16220000     -74.66010000
H      -47.77080000     -35.47430000     -74.92190000
C      -48.91300000     -31.52290000     -70.91910000
H      -49.88940000     -31.12220000     -71.28000000
H      -49.00020000     -31.44130000     -69.81350000
S      -45.92860000     -36.36270000     -73.70440000
S      -47.59710000     -30.38510000     -71.47430000
C      -44.64640000     -35.34710000     -72.79400000
H      -43.72520000     -35.96090000     -72.88600000
H      -44.54210000     -34.39540000     -73.38770000
C      -46.13790000     -30.96280000     -70.57790000
H      -46.56180000     -31.78860000     -70.00560000
H      -45.75950000     -30.18880000     -69.88570000
C      -45.10270000     -31.50780000     -71.60510000
H      -45.56570000     -32.32410000     -72.18370000
H      -44.86940000     -30.73290000     -72.44240000
C      -44.83410000     -35.09590000     -71.31010000
H      -45.04690000     -35.99990000     -70.77190000
H      -45.66190000     -34.35970000     -71.12970000
C      -43.52750000     -34.49850000     -70.70560000
C      -42.52200000     -35.33020000     -70.27510000
C      -43.16560000     -33.12400000     -70.54190000
H      -42.55950000     -36.48490000     -70.29010000
C      -41.96630000     -32.92340000     -69.89240000
C      -43.74550000     -31.80640000     -70.95880000
C      -42.96770000     -30.76270000     -70.47730000
S      -41.21530000     -34.50430000     -69.53220000
S      -41.49480000     -31.28550000     -69.71490000
H      -43.07850000     -29.67110000     -70.48230000
