40
Properties=species:S:1:pos:R:3 #=T CELL(abcABC):=T 1.889726e+02=T 90.00000=T Traj:=T positionsangstrom=T Step:=T 0=T Bead:=T pbc="F F F"
C      -44.43250000     -29.21660000     -72.40680000
C      -44.03380000     -30.55100000     -72.71330000
C      -43.40910000     -31.27280000     -71.72790000
C      -43.08940000     -30.71900000     -70.45060000
C      -43.40460000     -29.36690000     -70.17110000
C      -44.13550000     -28.67760000     -71.12220000
H      -45.00920000     -28.71320000     -73.15880000
H      -42.95400000     -32.26740000     -71.95720000
H      -43.21790000     -28.91770000     -69.15190000
H      -44.45300000     -27.60160000     -70.94240000
C      -42.51760000     -31.62390000     -69.38590000
H      -41.74660000     -31.07670000     -68.90470000
H      -42.20060000     -32.60600000     -69.74570000
C      -44.33110000     -31.08720000     -74.06570000
H      -43.81250000     -30.43500000     -74.73380000
H      -43.87290000     -32.04100000     -74.09710000
S      -43.72530000     -32.08510000     -68.02480000
S      -46.09160000     -31.21590000     -74.49650000
C      -44.91440000     -33.13730000     -68.99380000
H      -45.61900000     -33.56670000     -68.31930000
H      -45.40540000     -32.48180000     -69.65730000
C      -46.56790000     -32.93700000     -74.09450000
H      -45.91820000     -33.64710000     -74.64140000
H      -47.58750000     -32.82980000     -74.45850000
C      -46.45340000     -33.24030000     -72.52200000
H      -45.42150000     -32.99910000     -72.29200000
H      -47.11360000     -32.61690000     -72.01090000
C      -44.21560000     -34.30690000     -69.70980000
H      -43.37180000     -34.64540000     -68.98030000
H      -43.74780000     -33.84080000     -70.62310000
C      -45.13110000     -35.44810000     -70.05670000
C      -45.07200000     -36.60440000     -69.31630000
C      -46.18330000     -35.47330000     -71.13420000
H      -44.30670000     -36.86860000     -68.59840000
C      -46.81260000     -36.73450000     -71.09490000
C      -46.76610000     -34.65640000     -72.13880000
C      -47.79570000     -35.23010000     -72.79660000
S      -46.08720000     -37.88250000     -70.08770000
S      -48.02920000     -36.89990000     -72.31270000
H      -48.35690000     -34.90390000     -73.64350000
