40
Properties=species:S:1:pos:R:3 #=T CELL(abcABC):=T 1.889726e+02=T 90.00000=T Traj:=T positionsangstrom=T Step:=T 0=T Bead:=T pbc="F F F"
C      -49.41520000     -33.94550000     -70.71340000
C      -48.85220000     -32.91410000     -71.44620000
C      -48.13110000     -33.26760000     -72.60470000
C      -47.97030000     -34.61740000     -72.98860000
C      -48.56610000     -35.66690000     -72.22530000
C      -49.17770000     -35.31470000     -71.04020000
H      -49.88170000     -33.79820000     -69.80290000
H      -47.67770000     -32.48560000     -73.14270000
H      -48.41610000     -36.74360000     -72.38080000
H      -49.51080000     -36.08750000     -70.40560000
C      -47.08580000     -35.00830000     -74.15960000
H      -46.58960000     -34.13680000     -74.46840000
H      -47.63390000     -35.35040000     -74.97420000
C      -49.03930000     -31.41470000     -70.97010000
H      -50.01290000     -31.04040000     -71.29490000
H      -49.12150000     -31.48800000     -69.87270000
S      -45.89170000     -36.36070000     -73.72790000
S      -47.62590000     -30.21870000     -71.28740000
C      -44.42010000     -35.52150000     -72.96410000
H      -43.61820000     -36.28060000     -72.93350000
H      -44.06420000     -34.77110000     -73.64820000
C      -46.13100000     -31.01780000     -70.46500000
H      -46.43360000     -31.80010000     -69.76600000
H      -45.72160000     -30.30920000     -69.79780000
C      -45.07080000     -31.50460000     -71.53390000
H      -45.40290000     -32.31780000     -72.24270000
H      -44.97000000     -30.74350000     -72.25280000
C      -44.79360000     -34.95770000     -71.59010000
H      -45.34360000     -35.79850000     -71.13300000
H      -45.43330000     -34.06070000     -71.75680000
C      -43.59430000     -34.44580000     -70.85750000
C      -42.60310000     -35.28030000     -70.46570000
C      -43.24360000     -33.09160000     -70.53660000
H      -42.65510000     -36.40730000     -70.56980000
C      -42.08450000     -32.97250000     -69.79060000
C      -43.80490000     -31.76340000     -70.84530000
C      -42.98730000     -30.74960000     -70.33620000
S      -41.24870000     -34.51100000     -69.64940000
S      -41.55080000     -31.39080000     -69.48690000
H      -42.94650000     -29.72040000     -70.51940000
