40
Properties=species:S:1:pos:R:3 #=T CELL(abcABC):=T 1.889726e+02=T 90.00000=T Traj:=T positionsangstrom=T Step:=T 0=T Bead:=T pbc="F F F"
C      -48.31770000     -31.48570000     -73.10030000
C      -47.04820000     -31.57920000     -73.80090000
C      -46.55980000     -32.85580000     -74.10780000
C      -47.33290000     -33.98600000     -73.86830000
C      -48.62390000     -33.85590000     -73.39740000
C      -49.18540000     -32.62030000     -73.00440000
H      -48.70990000     -30.51800000     -72.74480000
H      -45.62820000     -32.98530000     -74.53360000
H      -49.21670000     -34.79900000     -73.36950000
H      -50.22540000     -32.34630000     -72.72480000
C      -46.80110000     -35.38250000     -74.15370000
H      -45.75610000     -35.31520000     -74.43750000
H      -47.27090000     -35.90780000     -75.05860000
C      -46.27110000     -30.32930000     -74.16110000
H      -46.32040000     -30.04760000     -75.23490000
H      -46.79350000     -29.44260000     -73.74090000
S      -46.87100000     -36.51220000     -72.74350000
S      -44.54570000     -30.26660000     -73.53560000
C      -46.15860000     -35.52810000     -71.41130000
H      -46.54140000     -34.47380000     -71.45410000
H      -46.42570000     -36.02760000     -70.53490000
C      -44.59140000     -30.85230000     -71.75160000
H      -44.98970000     -30.01180000     -71.20820000
H      -43.48890000     -31.07370000     -71.56560000
C      -45.22780000     -32.07650000     -71.14540000
H      -46.24590000     -31.81570000     -70.83760000
H      -45.26630000     -32.85490000     -71.86390000
C      -44.60340000     -35.38920000     -71.54040000
H      -44.25310000     -34.61960000     -72.22560000
H      -44.17150000     -36.37370000     -71.82800000
C      -43.99930000     -35.10240000     -70.16980000
C      -43.47760000     -36.08620000     -69.31480000
C      -44.00090000     -33.83170000     -69.49400000
H      -43.31580000     -37.10340000     -69.54930000
C      -43.42010000     -33.87250000     -68.20910000
C      -44.42260000     -32.48890000     -69.89570000
C      -44.07350000     -31.51570000     -68.97340000
S      -42.81560000     -35.43410000     -67.75220000
S      -43.35210000     -32.22020000     -67.54330000
H      -44.52900000     -30.53060000     -68.94270000
