40
Properties=species:S:1:pos:R:3 #=T CELL(abcABC):=T 1.889726e+02=T 90.00000=T Traj:=T positionsangstrom=T Step:=T 0=T Bead:=T pbc="F F F"
C      -48.66350000     -31.58260000     -73.28860000
C      -47.23650000     -31.55790000     -73.49650000
C      -46.60540000     -32.82140000     -73.76140000
C      -47.34790000     -34.03900000     -73.78520000
C      -48.68120000     -34.01530000     -73.41980000
C      -49.33260000     -32.83390000     -73.19860000
H      -49.13910000     -30.67700000     -72.95900000
H      -45.52820000     -32.83550000     -74.06920000
H      -49.24410000     -34.91150000     -73.35880000
H      -50.36530000     -32.89480000     -72.89270000
C      -46.57610000     -35.22770000     -74.15020000
H      -45.48980000     -35.07250000     -74.22150000
H      -46.75030000     -35.56110000     -75.18950000
C      -46.44450000     -30.27880000     -73.66260000
H      -46.76470000     -29.81700000     -74.62470000
H      -46.73500000     -29.59320000     -72.94830000
S      -46.79430000     -36.62400000     -72.94120000
S      -44.62310000     -30.53450000     -73.50150000
C      -46.03060000     -35.92210000     -71.45040000
H      -46.53370000     -35.08810000     -70.89500000
H      -45.98900000     -36.69570000     -70.74770000
C      -44.25930000     -30.64000000     -71.71060000
H      -44.45900000     -29.76680000     -71.20280000
H      -43.21000000     -30.91480000     -71.70010000
C      -45.11220000     -31.78160000     -71.02790000
H      -46.10990000     -31.29300000     -70.86310000
H      -45.22510000     -32.60370000     -71.72070000
C      -44.58450000     -35.39020000     -71.62350000
H      -44.60720000     -34.52120000     -72.29400000
H      -44.00540000     -36.17860000     -72.02390000
C      -44.00730000     -34.91300000     -70.30150000
C      -43.33860000     -35.86380000     -69.61170000
C      -44.07490000     -33.63830000     -69.54410000
H      -43.21120000     -36.91840000     -69.91230000
C      -43.33470000     -33.73070000     -68.36200000
C      -44.56550000     -32.29060000     -69.68260000
C      -44.22230000     -31.43920000     -68.66300000
S      -42.75680000     -35.35810000     -68.04820000
S      -43.33750000     -32.25890000     -67.42040000
H      -44.48610000     -30.39880000     -68.56720000
