40
Properties=species:S:1:pos:R:3 #=T CELL(abcABC):=T 1.889726e+02=T 90.00000=T Traj:=T positionsangstrom=T Step:=T 0=T Bead:=T pbc="F F F"
C      -48.30150000     -31.42060000     -73.28270000
C      -47.05210000     -31.50510000     -73.84590000
C      -46.58940000     -32.76720000     -74.25150000
C      -47.31470000     -33.91850000     -73.89150000
C      -48.51330000     -33.84470000     -73.17700000
C      -49.07150000     -32.56090000     -72.93150000
H      -48.71390000     -30.47810000     -73.07280000
H      -45.75440000     -32.83220000     -74.80230000
H      -49.10060000     -34.72660000     -72.87660000
H      -50.10990000     -32.50930000     -72.52570000
C      -46.79790000     -35.31310000     -74.18640000
H      -45.76670000     -35.22280000     -74.67360000
H      -47.45980000     -35.60650000     -75.04470000
C      -46.33110000     -30.25040000     -74.07540000
H      -46.27310000     -30.18030000     -75.16160000
H      -46.98160000     -29.38820000     -73.87080000
S      -46.83470000     -36.59600000     -72.85520000
S      -44.54340000     -30.19700000     -73.40140000
C      -46.00090000     -35.57080000     -71.56420000
H      -46.39940000     -34.56500000     -71.45520000
H      -46.17660000     -36.04520000     -70.58420000
C      -44.75340000     -30.82060000     -71.66740000
H      -45.76730000     -31.05400000     -71.43560000
H      -44.40560000     -30.04020000     -71.02830000
C      -43.95200000     -32.02260000     -71.44590000
H      -44.35290000     -32.89890000     -71.99990000
H      -42.94400000     -31.88780000     -71.90340000
C      -44.38560000     -35.46270000     -71.71740000
H      -43.99150000     -34.75410000     -72.48690000
H      -44.05940000     -36.45770000     -71.91190000
C      -43.97360000     -35.10300000     -70.23770000
C      -43.87170000     -36.07880000     -69.30030000
C      -43.81250000     -33.78300000     -69.58630000
H      -43.88790000     -37.14020000     -69.47150000
C      -43.69830000     -33.89890000     -68.19390000
C      -43.78610000     -32.38620000     -70.01020000
C      -43.50140000     -31.56670000     -68.97350000
S      -43.83790000     -35.49720000     -67.54970000
S      -43.37930000     -32.35550000     -67.40910000
H      -43.54140000     -30.42170000     -68.97320000
