40
Properties=species:S:1:pos:R:3 #=T CELL(abcABC):=T 1.889726e+02=T 90.00000=T Traj:=T positionsangstrom=T Step:=T 0=T Bead:=T pbc="F F F"
C      -41.42640000     -33.90280000     -68.88410000
C      -42.69380000     -33.31960000     -69.06320000
C      -42.93320000     -32.46630000     -70.12330000
C      -41.91630000     -32.27400000     -71.07520000
C      -40.74410000     -33.07710000     -71.04430000
C      -40.43740000     -33.77020000     -69.88860000
H      -41.23500000     -34.45200000     -68.06530000
H      -43.93620000     -32.03110000     -70.19060000
H      -39.99760000     -32.93230000     -71.84160000
H      -39.51680000     -34.44870000     -69.77610000
C      -42.13830000     -31.34570000     -72.22680000
H      -41.20290000     -30.76860000     -72.35310000
H      -42.87910000     -30.63470000     -71.98770000
C      -43.83090000     -33.47870000     -68.04570000
H      -43.44540000     -33.28090000     -67.03520000
H      -44.53120000     -32.73930000     -68.22940000
S      -42.50440000     -32.22300000     -73.89230000
S      -44.64520000     -35.11450000     -67.96820000
C      -44.32000000     -32.39570000     -73.98310000
H      -44.78690000     -31.42390000     -73.83600000
H      -44.46710000     -32.64240000     -75.05630000
C      -46.28900000     -34.76650000     -68.65550000
H      -46.81270000     -34.13140000     -67.99720000
H      -46.85330000     -35.64390000     -68.71400000
C      -46.14960000     -34.08550000     -70.00370000
H      -45.68860000     -33.13900000     -69.86540000
H      -45.51440000     -34.69920000     -70.69530000
C      -44.98830000     -33.35120000     -73.03390000
H      -44.62040000     -33.23660000     -72.01100000
H      -44.68490000     -34.38250000     -73.22710000
C      -46.56140000     -33.27420000     -73.11440000
C      -47.19190000     -33.05850000     -74.27790000
C      -47.51040000     -33.46050000     -72.02730000
H      -46.77300000     -32.72020000     -75.19010000
C      -48.87830000     -33.46210000     -72.45140000
C      -47.45170000     -33.86360000     -70.64140000
C      -48.66930000     -34.05540000     -70.09260000
S      -48.93850000     -33.01680000     -74.09930000
S      -50.02630000     -33.81570000     -71.27000000
H      -48.97540000     -34.52430000     -69.19360000
