40
Properties=species:S:1:pos:R:3 #=T CELL(abcABC):=T 1.889726e+02=T 90.00000=T Traj:=T positionsangstrom=T Step:=T 0=T Bead:=T pbc="F F F"
C      -48.69760000     -31.57970000     -73.42720000
C      -47.26300000     -31.61090000     -73.60550000
C      -46.65040000     -32.84780000     -73.89340000
C      -47.41280000     -34.07190000     -73.86740000
C      -48.74680000     -34.00380000     -73.45100000
C      -49.37940000     -32.80920000     -73.30390000
H      -49.29290000     -30.60960000     -73.43540000
H      -45.60240000     -32.89210000     -74.05300000
H      -49.26820000     -34.96690000     -73.28900000
H      -50.44260000     -32.75180000     -73.12730000
C      -46.69090000     -35.36870000     -74.24320000
H      -45.75420000     -35.07810000     -74.57170000
H      -47.38500000     -35.77470000     -74.99310000
C      -46.60610000     -30.23810000     -73.31040000
H      -46.94420000     -29.47100000     -74.09090000
H      -47.00370000     -29.94550000     -72.30220000
S      -46.60430000     -36.64180000     -72.87080000
S      -44.81680000     -30.16120000     -73.39190000
C      -45.98660000     -35.68450000     -71.39300000
H      -46.78380000     -34.92400000     -71.13080000
H      -46.09890000     -36.42210000     -70.62200000
C      -44.22390000     -30.93430000     -71.74600000
H      -43.79230000     -30.10790000     -71.10510000
H      -43.31220000     -31.53010000     -71.97770000
C      -45.15890000     -31.88490000     -71.06610000
H      -46.05510000     -31.33420000     -70.67600000
H      -45.52540000     -32.68430000     -71.65790000
C      -44.49140000     -35.25400000     -71.64490000
H      -44.54670000     -34.31010000     -72.21810000
H      -43.84860000     -36.00220000     -72.15820000
C      -43.84490000     -34.98180000     -70.33100000
C      -43.29560000     -35.96410000     -69.56130000
C      -43.90420000     -33.71050000     -69.59880000
H      -43.14310000     -37.00020000     -69.91360000
C      -43.31070000     -33.78300000     -68.33540000
C      -44.44720000     -32.37260000     -69.82500000
C      -44.20970000     -31.51380000     -68.78590000
S      -42.72990000     -35.40440000     -67.96580000
S      -43.35070000     -32.30740000     -67.44780000
H      -44.53740000     -30.51730000     -68.60660000
