40
Properties=species:S:1:pos:R:3 #=T CELL(abcABC):=T 1.889726e+02=T 90.00000=T Traj:=T positionsangstrom=T Step:=T 0=T Bead:=T pbc="F F F"
C      -49.09590000     -31.88100000     -73.10660000
C      -47.72720000     -31.68210000     -73.29840000
C      -46.96000000     -32.69530000     -73.87710000
C      -47.43600000     -34.01440000     -74.06980000
C      -48.84420000     -34.23050000     -73.94820000
C      -49.59930000     -33.17940000     -73.45770000
H      -49.75750000     -31.10320000     -72.85990000
H      -45.87190000     -32.43220000     -74.09990000
H      -49.39230000     -35.16330000     -74.14530000
H      -50.72300000     -33.26950000     -73.38380000
C      -46.39330000     -35.13330000     -74.48970000
H      -45.50410000     -34.55950000     -74.55010000
H      -46.70340000     -35.55140000     -75.47390000
C      -47.08000000     -30.31790000     -73.12590000
H      -47.31530000     -29.72850000     -74.02640000
H      -47.39400000     -29.81460000     -72.22560000
S      -46.21700000     -36.45180000     -73.19830000
S      -45.18050000     -30.10930000     -73.14260000
C      -45.62460000     -35.49370000     -71.78680000
H      -46.30500000     -34.60320000     -71.78410000
H      -45.85420000     -35.99910000     -70.88870000
C      -44.32250000     -31.35250000     -72.05040000
H      -43.49200000     -30.74270000     -71.63660000
H      -43.91520000     -32.18980000     -72.66620000
C      -45.18180000     -32.05040000     -70.96300000
H      -46.02420000     -31.51970000     -70.67170000
H      -45.56610000     -32.93280000     -71.42610000
C      -44.13570000     -35.10430000     -71.67800000
H      -43.96930000     -34.21150000     -72.29890000
H      -43.64820000     -35.99820000     -71.95650000
C      -43.65250000     -34.86100000     -70.23440000
C      -42.94870000     -35.83650000     -69.54090000
C      -43.78950000     -33.68980000     -69.45870000
H      -42.82070000     -36.87620000     -69.80910000
C      -43.29630000     -33.80510000     -68.13480000
C      -44.40100000     -32.42970000     -69.72090000
C      -44.27770000     -31.58710000     -68.65650000
S      -42.64640000     -35.38380000     -67.83590000
S      -43.30230000     -32.26520000     -67.33760000
H      -44.71260000     -30.61320000     -68.68950000
