40
Properties=species:S:1:pos:R:3 #=T CELL(abcABC):=T 1.889726e+02=T 90.00000=T Traj:=T positionsangstrom=T Step:=T 0=T Bead:=T pbc="F F F"
C      -48.91420000     -31.87560000     -73.10430000
C      -47.49920000     -31.68790000     -73.30500000
C      -46.82420000     -32.73430000     -73.97530000
C      -47.37960000     -33.97220000     -74.21110000
C      -48.70010000     -34.22700000     -73.89530000
C      -49.47870000     -33.09550000     -73.48270000
H      -49.55680000     -31.22100000     -72.55810000
H      -45.73570000     -32.40720000     -74.08350000
H      -49.27750000     -35.16370000     -74.04640000
H      -50.54500000     -33.21800000     -73.22780000
C      -46.49380000     -35.19220000     -74.51520000
H      -45.40270000     -35.01210000     -74.73130000
H      -46.86190000     -35.85520000     -75.23960000
C      -46.86900000     -30.43530000     -72.79710000
H      -47.54730000     -29.64170000     -73.11800000
H      -46.94180000     -30.36490000     -71.67820000
S      -46.52680000     -36.24600000     -72.99650000
S      -45.17160000     -30.20310000     -73.34010000
C      -45.62880000     -35.54100000     -71.45170000
H      -46.19090000     -34.65660000     -71.13610000
H      -45.84520000     -36.28150000     -70.65130000
C      -44.29960000     -31.34920000     -72.15790000
H      -43.60950000     -30.63000000     -71.80120000
H      -43.73430000     -32.19080000     -72.65610000
C      -45.15160000     -31.88560000     -71.00740000
H      -45.77610000     -31.04070000     -70.62050000
H      -45.91340000     -32.70590000     -71.34650000
C      -44.19800000     -35.31270000     -71.63620000
H      -43.91840000     -34.54180000     -72.37890000
H      -43.65710000     -36.19110000     -71.99890000
C      -43.55680000     -34.94930000     -70.28470000
C      -43.05850000     -35.94190000     -69.44550000
C      -43.71140000     -33.69150000     -69.57990000
H      -43.13210000     -36.98710000     -69.63780000
C      -43.23720000     -33.75310000     -68.27620000
C      -44.30820000     -32.34790000     -69.86140000
C      -44.24910000     -31.54310000     -68.76470000
S      -42.59080000     -35.34160000     -67.87340000
S      -43.52690000     -32.30400000     -67.34360000
H      -44.76860000     -30.59360000     -68.60660000
