40
Properties=species:S:1:pos:R:3 #=T CELL(abcABC):=T 1.889726e+02=T 90.00000=T Traj:=T positionsangstrom=T Step:=T 0=T Bead:=T pbc="F F F"
C      -48.87510000     -31.78050000     -73.04450000
C      -47.47940000     -31.64470000     -73.30520000
C      -46.72000000     -32.84580000     -73.66390000
C      -47.35350000     -34.02300000     -73.95640000
C      -48.75000000     -34.09020000     -73.87050000
C      -49.47520000     -32.99610000     -73.42910000
H      -49.47110000     -30.90530000     -72.68660000
H      -45.64500000     -32.74540000     -73.94230000
H      -49.35400000     -34.97740000     -74.18140000
H      -50.55920000     -32.90960000     -73.37710000
C      -46.50210000     -35.25350000     -74.30760000
H      -45.41500000     -35.03090000     -74.44460000
H      -46.79090000     -35.81290000     -75.21660000
C      -46.86780000     -30.21690000     -73.35670000
H      -47.01500000     -29.75670000     -74.31510000
H      -47.23930000     -29.50970000     -72.63320000
S      -46.65710000     -36.54080000     -72.88850000
S      -44.96200000     -30.12210000     -73.39310000
C      -45.94850000     -35.48890000     -71.58460000
H      -46.31850000     -34.50920000     -71.67930000
H      -46.17130000     -35.92990000     -70.58140000
C      -44.07540000     -31.20470000     -72.13720000
H      -43.33030000     -30.56830000     -71.65620000
H      -43.53740000     -31.96910000     -72.66990000
C      -44.97610000     -31.85840000     -71.09680000
H      -45.79390000     -31.23870000     -70.81330000
H      -45.40450000     -32.66950000     -71.67950000
C      -44.33840000     -35.32400000     -71.61450000
H      -44.08330000     -34.57820000     -72.32210000
H      -43.99470000     -36.27530000     -72.08960000
C      -43.72730000     -34.98940000     -70.27830000
C      -43.09630000     -35.94310000     -69.50870000
C      -43.86490000     -33.71110000     -69.55590000
H      -42.79430000     -36.92030000     -69.81360000
C      -43.41370000     -33.82000000     -68.25350000
C      -44.35490000     -32.35130000     -69.83410000
C      -44.24080000     -31.54180000     -68.72350000
S      -42.61790000     -35.33520000     -67.91630000
S      -43.43040000     -32.32710000     -67.34100000
H      -44.25500000     -30.44420000     -68.63300000
