40
Properties=species:S:1:pos:R:3 #=T CELL(abcABC):=T 1.889726e+02=T 90.00000=T Traj:=T positionsangstrom=T Step:=T 0=T Bead:=T pbc="F F F"
C      -47.72400000     -32.28080000     -68.85910000
C      -48.27640000     -32.44290000     -70.15100000
C      -48.34500000     -33.76280000     -70.65250000
C      -48.16850000     -34.88290000     -69.84590000
C      -47.83270000     -34.66050000     -68.47780000
C      -47.55330000     -33.37940000     -68.02710000
H      -47.59800000     -31.25700000     -68.40720000
H      -48.80870000     -33.94040000     -71.64550000
H      -47.44720000     -35.52580000     -67.84640000
H      -47.40700000     -33.31400000     -67.01570000
C      -48.15570000     -36.26510000     -70.49240000
H      -48.38540000     -36.17930000     -71.55230000
H      -48.82960000     -36.99620000     -69.99620000
C      -48.83100000     -31.30680000     -71.03870000
H      -49.88650000     -31.54940000     -71.14370000
H      -48.65050000     -30.33790000     -70.48840000
S      -46.42840000     -37.04810000     -70.41660000
S      -48.21010000     -31.31830000     -72.82750000
C      -45.25260000     -36.04420000     -71.49700000
H      -44.47120000     -36.72970000     -71.85040000
H      -45.83720000     -35.78520000     -72.42780000
C      -46.41160000     -30.85380000     -72.59940000
H      -46.30730000     -29.86190000     -72.10670000
H      -46.20450000     -30.63400000     -73.61990000
C      -45.54300000     -32.08850000     -72.07620000
H      -45.92220000     -32.28760000     -71.06010000
H      -45.87170000     -33.00730000     -72.63840000
C      -44.57670000     -34.92740000     -70.69810000
H      -44.17890000     -35.40650000     -69.78360000
H      -45.27360000     -34.15000000     -70.39440000
C      -43.32500000     -34.38700000     -71.46040000
C      -42.15610000     -35.08920000     -71.49310000
C      -43.20920000     -33.03030000     -71.98340000
H      -42.07040000     -36.07270000     -71.00440000
C      -41.84510000     -32.73600000     -72.28000000
C      -44.07540000     -31.88830000     -72.15220000
C      -43.40000000     -30.71660000     -72.36480000
S      -40.81800000     -34.09730000     -72.20200000
S      -41.67240000     -31.05160000     -72.70340000
H      -43.74210000     -29.71960000     -72.61550000
