40
Properties=species:S:1:pos:R:3 #=T CELL(abcABC):=T 1.889726e+02=T 90.00000=T Traj:=T positionsangstrom=T Step:=T 0=T Bead:=T pbc="F F F"
C      -46.73410000     -35.89220000     -74.63850000
C      -47.22020000     -35.66420000     -73.33330000
C      -46.34370000     -36.13220000     -72.26750000
C      -45.02810000     -36.63040000     -72.52760000
C      -44.57190000     -36.80830000     -73.87850000
C      -45.42350000     -36.37470000     -74.91990000
H      -47.32970000     -35.61540000     -75.53340000
H      -46.73120000     -36.01110000     -71.23530000
H      -43.60600000     -37.07290000     -74.16070000
H      -45.07750000     -36.30400000     -75.87090000
C      -44.10230000     -37.07900000     -71.42390000
H      -43.79180000     -38.13870000     -71.58300000
H      -44.67980000     -36.90040000     -70.48760000
C      -48.58480000     -35.11970000     -73.12230000
H      -49.33010000     -35.61850000     -73.78270000
H      -48.89310000     -35.26840000     -72.02620000
S      -42.59960000     -36.04280000     -71.17130000
S      -48.53250000     -33.24900000     -73.42000000
C      -43.11050000     -35.00390000     -69.80210000
H      -43.50900000     -35.58470000     -68.98320000
H      -42.14480000     -34.60580000     -69.39090000
C      -47.10610000     -32.68920000     -72.46280000
H      -46.83030000     -31.72400000     -72.86030000
H      -46.25830000     -33.31650000     -72.85100000
C      -47.22210000     -32.62870000     -70.94880000
H      -48.25460000     -32.44170000     -70.62800000
H      -46.80120000     -33.59290000     -70.54520000
C      -44.17470000     -34.00690000     -70.20830000
H      -45.02050000     -34.30170000     -69.61210000
H      -44.48510000     -34.14050000     -71.25460000
C      -43.93730000     -32.53470000     -69.78100000
C      -42.79790000     -32.03560000     -69.12470000
C      -44.97470000     -31.54990000     -69.92320000
H      -41.87360000     -32.64610000     -68.92540000
C      -44.48600000     -30.31410000     -69.55780000
C      -46.35530000     -31.48670000     -70.39780000
C      -46.90320000     -30.19800000     -70.20390000
S      -42.89600000     -30.27870000     -68.80760000
S      -45.65120000     -29.03140000     -69.66010000
H      -47.92820000     -29.86300000     -70.37560000
