40
Properties=species:S:1:pos:R:3 #=T CELL(abcABC):=T 1.889726e+02=T 90.00000=T Traj:=T positionsangstrom=T Step:=T 0=T Bead:=T pbc="F F F"
C      -46.66980000     -36.10810000     -74.58740000
C      -47.02110000     -35.95120000     -73.22510000
C      -46.11570000     -36.35170000     -72.20540000
C      -44.88340000     -36.94910000     -72.48550000
C      -44.57500000     -37.08050000     -73.86870000
C      -45.45140000     -36.78470000     -74.90920000
H      -47.33090000     -35.79730000     -75.36850000
H      -46.33090000     -36.20020000     -71.19010000
H      -43.61750000     -37.60020000     -74.14930000
H      -45.17710000     -36.98480000     -76.00900000
C      -43.97710000     -37.31640000     -71.36150000
H      -43.35380000     -38.18800000     -71.49180000
H      -44.38320000     -37.52330000     -70.39680000
C      -48.35200000     -35.39490000     -72.80860000
H      -49.18010000     -35.78270000     -73.51490000
H      -48.54580000     -35.72090000     -71.80660000
S      -42.62870000     -35.99790000     -71.29090000
S      -48.59020000     -33.55760000     -73.16050000
C      -43.07190000     -34.80480000     -69.94600000
H      -43.03510000     -35.32490000     -69.01180000
H      -42.22590000     -34.14240000     -69.95160000
C      -47.17010000     -32.63790000     -72.31840000
H      -47.14130000     -31.76480000     -72.96580000
H      -46.20520000     -33.07940000     -72.42130000
C      -47.32750000     -32.30580000     -70.79610000
H      -48.42340000     -32.13090000     -70.67740000
H      -47.10380000     -33.14300000     -70.17770000
C      -44.34550000     -33.86430000     -70.16140000
H      -45.23490000     -34.20520000     -69.65250000
H      -44.60910000     -33.80950000     -71.20370000
C      -44.08070000     -32.41400000     -69.75340000
C      -42.88280000     -31.91570000     -69.36670000
C      -45.08310000     -31.30830000     -69.93090000
H      -41.92350000     -32.41980000     -69.10630000
C      -44.55380000     -30.04910000     -69.62780000
C      -46.47290000     -31.22470000     -70.28830000
C      -46.93350000     -29.93410000     -70.15770000
S      -42.82720000     -30.15950000     -69.23350000
S      -45.69910000     -28.78600000     -69.66320000
H      -47.92740000     -29.59970000     -70.44470000
