40
Properties=species:S:1:pos:R:3 #=T CELL(abcABC):=T 1.889726e+02=T 90.00000=T Traj:=T positionsangstrom=T Step:=T 0=T Bead:=T pbc="F F F"
C      -46.62990000     -35.61330000     -74.76790000
C      -47.15850000     -35.46850000     -73.41520000
C      -46.47420000     -35.96740000     -72.31660000
C      -45.21560000     -36.61400000     -72.52950000
C      -44.66180000     -36.64870000     -73.81930000
C      -45.37830000     -36.20530000     -74.95180000
H      -47.07470000     -35.03060000     -75.54040000
H      -46.91160000     -35.97000000     -71.32590000
H      -43.58430000     -36.97850000     -73.89520000
H      -44.97430000     -36.22500000     -76.00580000
C      -44.44290000     -37.14470000     -71.38260000
H      -44.14890000     -38.17850000     -71.59210000
H      -44.99880000     -36.93050000     -70.46620000
C      -48.53020000     -34.80340000     -73.22770000
H      -49.25550000     -35.23570000     -73.98270000
H      -48.98590000     -34.77760000     -72.19250000
S      -42.72400000     -36.41410000     -71.15520000
S      -48.39800000     -33.01380000     -73.69360000
C      -42.86310000     -34.90740000     -70.03450000
H      -43.00670000     -35.23750000     -68.92180000
H      -41.89490000     -34.38920000     -70.16580000
C      -46.88190000     -32.47990000     -72.71830000
H      -46.67500000     -31.35400000     -72.95160000
H      -46.08890000     -33.17350000     -73.04500000
C      -47.06360000     -32.58930000     -71.15690000
H      -48.12970000     -32.31440000     -70.84820000
H      -46.86950000     -33.61500000     -70.86560000
C      -43.99760000     -34.03120000     -70.31660000
H      -44.86960000     -34.60580000     -69.95670000
H      -44.20060000     -34.02090000     -71.41280000
C      -43.93860000     -32.57700000     -69.72420000
C      -42.77300000     -32.11530000     -69.17840000
C      -44.93070000     -31.57510000     -69.85410000
H      -42.03690000     -32.72400000     -68.79190000
C      -44.61620000     -30.45610000     -69.09460000
C      -46.23370000     -31.53640000     -70.42690000
C      -46.79400000     -30.28390000     -70.33830000
S      -42.98910000     -30.49620000     -68.41610000
S      -45.78460000     -29.17370000     -69.44060000
H      -47.82180000     -30.09150000     -70.67810000
