40
Properties=species:S:1:pos:R:3 #=T CELL(abcABC):=T 1.889726e+02=T 90.00000=T Traj:=T positionsangstrom=T Step:=T 0=T Bead:=T pbc="F F F"
C      -46.73460000     -36.20700000     -74.47690000
C      -47.00760000     -36.04180000     -73.06130000
C      -46.06750000     -36.47900000     -72.15870000
C      -44.80870000     -37.00350000     -72.56390000
C      -44.58910000     -37.15390000     -73.93520000
C      -45.57850000     -36.81410000     -74.82920000
H      -47.48850000     -35.89420000     -75.20940000
H      -46.30490000     -36.52670000     -71.09250000
H      -43.62520000     -37.58790000     -74.26550000
H      -45.37180000     -36.90710000     -75.96710000
C      -43.77610000     -37.31080000     -71.48410000
H      -43.20910000     -38.24640000     -71.71870000
H      -44.34040000     -37.32720000     -70.51140000
C      -48.32490000     -35.51420000     -72.64520000
H      -49.18910000     -36.09840000     -72.98370000
H      -48.40850000     -35.63220000     -71.58790000
S      -42.54240000     -35.86200000     -71.25110000
S      -48.53500000     -33.64560000     -73.07890000
C      -43.28040000     -34.80150000     -69.89790000
H      -43.87410000     -35.51440000     -69.21340000
H      -42.41280000     -34.35120000     -69.34330000
C      -47.26740000     -32.54340000     -72.20880000
H      -47.63270000     -31.52480000     -72.60480000
H      -46.28130000     -32.84870000     -72.60530000
C      -47.37160000     -32.36760000     -70.66080000
H      -48.34570000     -32.14030000     -70.16560000
H      -47.06300000     -33.28980000     -70.17760000
C      -44.26460000     -33.72750000     -70.37260000
H      -45.25640000     -34.13110000     -69.98940000
H      -44.26580000     -33.75620000     -71.48860000
C      -43.99790000     -32.34540000     -69.93910000
C      -42.81120000     -31.80340000     -69.61500000
C      -45.03250000     -31.30210000     -70.09590000
H      -41.87750000     -32.22650000     -69.38270000
C      -44.56340000     -30.04330000     -69.71010000
C      -46.42560000     -31.26280000     -70.33310000
C      -46.96380000     -29.99050000     -70.20920000
S      -42.94280000     -30.05390000     -69.13930000
S      -45.72690000     -28.81240000     -69.75470000
H      -47.95260000     -29.68400000     -70.42900000
