40
Properties=species:S:1:pos:R:3 #=T CELL(abcABC):=T 1.889726e+02=T 90.00000=T Traj:=T positionsangstrom=T Step:=T 0=T Bead:=T pbc="F F F"
C      -47.77640000     -31.97370000     -68.55130000
C      -48.24750000     -32.11190000     -69.88770000
C      -48.24800000     -33.39850000     -70.37560000
C      -47.68720000     -34.50550000     -69.68520000
C      -47.23580000     -34.33190000     -68.37270000
C      -47.22900000     -33.03570000     -67.83840000
H      -47.65970000     -31.01890000     -68.05530000
H      -48.47390000     -33.53210000     -71.46460000
H      -46.80170000     -35.17460000     -67.89040000
H      -47.00590000     -32.78320000     -66.83910000
C      -47.78720000     -35.82330000     -70.42900000
H      -47.91750000     -35.65130000     -71.51720000
H      -48.67540000     -36.34280000     -70.11230000
C      -48.74670000     -30.97020000     -70.72640000
H      -49.93340000     -30.86200000     -70.74830000
H      -48.47790000     -29.95900000     -70.37580000
S      -46.45650000     -37.05480000     -70.08220000
S      -48.34970000     -31.00220000     -72.48600000
C      -44.92110000     -36.42020000     -70.96590000
H      -44.13550000     -37.07790000     -70.55350000
H      -44.99840000     -36.65320000     -72.04810000
C      -46.51670000     -30.97590000     -72.51020000
H      -46.28540000     -30.05950000     -71.95000000
H      -46.27800000     -30.95520000     -73.57450000
C      -45.64260000     -32.15340000     -71.95040000
H      -45.59520000     -32.11120000     -70.85270000
H      -46.15410000     -32.98610000     -72.23430000
C      -44.60740000     -35.01220000     -70.68590000
H      -44.42200000     -34.99530000     -69.63050000
H      -45.46310000     -34.42020000     -70.91300000
C      -43.39620000     -34.48420000     -71.42100000
C      -42.18270000     -35.10950000     -71.39390000
C      -43.38430000     -33.34300000     -72.29510000
H      -42.12800000     -35.99490000     -70.78310000
C      -42.06210000     -33.08290000     -72.80850000
C      -44.23820000     -32.20290000     -72.56390000
C      -43.62550000     -31.20160000     -73.21210000
S      -40.90130000     -34.27880000     -72.37990000
S      -41.92710000     -31.46820000     -73.46730000
H      -44.06570000     -30.20850000     -73.26740000
