40
Properties=species:S:1:pos:R:3 #=T CELL(abcABC):=T 1.889726e+02=T 90.00000=T Traj:=T positionsangstrom=T Step:=T 0=T Bead:=T pbc="F F F"
C      -46.17790000     -35.35380000     -74.40660000
C      -46.67170000     -35.81480000     -73.18170000
C      -45.77080000     -36.53410000     -72.39730000
C      -44.43270000     -36.64470000     -72.69050000
C      -43.88590000     -36.04780000     -73.87370000
C      -44.82410000     -35.43730000     -74.74370000
H      -46.77860000     -34.84120000     -75.03580000
H      -46.04180000     -36.89180000     -71.42970000
H      -42.85560000     -36.13210000     -74.18020000
H      -44.55350000     -35.01270000     -75.68670000
C      -43.51790000     -37.25590000     -71.68010000
H      -42.74060000     -37.87600000     -72.28140000
H      -44.03740000     -37.95860000     -71.03270000
C      -48.11610000     -35.61600000     -72.70140000
H      -48.77680000     -36.36110000     -73.13120000
H      -48.07520000     -35.65210000     -71.60100000
S      -42.46820000     -36.12630000     -70.74750000
S      -48.71340000     -33.92850000     -73.12300000
C      -43.61660000     -34.77610000     -70.08030000
H      -44.61040000     -35.23730000     -69.92170000
H      -43.36060000     -34.50310000     -69.10310000
C      -47.30400000     -32.91860000     -72.36400000
H      -47.43870000     -31.90900000     -72.82600000
H      -46.35290000     -33.35790000     -72.74290000
C      -47.39660000     -32.78360000     -70.83470000
H      -48.38830000     -32.79720000     -70.43090000
H      -46.97290000     -33.65930000     -70.34150000
C      -43.68900000     -33.59080000     -71.07120000
H      -44.42350000     -33.82600000     -71.86370000
H      -42.69470000     -33.57600000     -71.51230000
C      -43.98280000     -32.19330000     -70.40580000
C      -42.90490000     -31.33930000     -70.19630000
C      -45.22210000     -31.49380000     -70.10620000
H      -41.87540000     -31.60340000     -70.24850000
C      -44.94410000     -30.27900000     -69.51570000
C      -46.60550000     -31.62730000     -70.30770000
C      -47.30270000     -30.59490000     -69.75800000
S      -43.26980000     -29.85960000     -69.37410000
S      -46.37550000     -29.42160000     -69.04890000
H      -48.36370000     -30.60630000     -69.72730000
