40
Properties=species:S:1:pos:R:3 #=T CELL(abcABC):=T 1.889726e+02=T 90.00000=T Traj:=T positionsangstrom=T Step:=T 0=T Bead:=T pbc="F F F"
C      -41.63080000     -34.23810000     -68.89880000
C      -42.72950000     -33.29060000     -68.89510000
C      -42.80670000     -32.37290000     -69.95950000
C      -41.89600000     -32.49420000     -71.03660000
C      -40.81030000     -33.43680000     -70.98540000
C      -40.69390000     -34.28640000     -69.89500000
H      -41.46640000     -34.91670000     -67.98730000
H      -43.61400000     -31.56450000     -70.10390000
H      -40.02560000     -33.36900000     -71.70640000
H      -39.90310000     -35.02540000     -69.82770000
C      -41.95160000     -31.57610000     -72.26280000
H      -40.89860000     -31.25190000     -72.43220000
H      -42.57230000     -30.65750000     -72.12170000
C      -43.73180000     -33.30000000     -67.75830000
H      -43.13100000     -33.25720000     -66.78750000
H      -44.33460000     -32.43600000     -67.70740000
S      -42.39840000     -32.26990000     -73.89720000
S      -44.80180000     -34.76820000     -67.48800000
C      -44.29720000     -32.30750000     -74.13800000
H      -44.62400000     -31.29670000     -74.35180000
H      -44.68310000     -32.90810000     -75.05230000
C      -46.27510000     -34.27020000     -68.54980000
H      -46.57750000     -33.26420000     -68.22780000
H      -47.06230000     -35.04200000     -68.35030000
C      -46.02740000     -34.29960000     -70.09780000
H      -45.35460000     -33.46820000     -70.38140000
H      -45.56620000     -35.33240000     -70.44270000
C      -45.08820000     -32.77930000     -72.91240000
H      -44.89270000     -32.02990000     -72.17270000
H      -44.67580000     -33.71050000     -72.48310000
C      -46.58160000     -32.90760000     -73.15420000
C      -47.29500000     -32.44260000     -74.32010000
C      -47.44860000     -33.52350000     -72.17280000
H      -46.85320000     -32.05620000     -75.22090000
C      -48.78890000     -33.41120000     -72.59820000
C      -47.36200000     -34.20030000     -70.88240000
C      -48.63900000     -34.70740000     -70.48160000
S      -49.04090000     -32.78620000     -74.15060000
S      -49.92710000     -34.21600000     -71.56850000
H      -48.88630000     -35.16640000     -69.53340000
