40
Properties=species:S:1:pos:R:3 #=T CELL(abcABC):=T 1.889726e+02=T 90.00000=T Traj:=T positionsangstrom=T Step:=T 0=T Bead:=T pbc="F F F"
C      -45.90810000     -35.33280000     -74.68140000
C      -46.52090000     -35.70830000     -73.48880000
C      -45.67810000     -36.13170000     -72.44820000
C      -44.29080000     -36.37530000     -72.55480000
C      -43.77390000     -36.13370000     -73.86120000
C      -44.52130000     -35.51990000     -74.84450000
H      -46.58580000     -34.90440000     -75.48690000
H      -46.12350000     -36.35670000     -71.44570000
H      -42.73320000     -36.47790000     -73.97110000
H      -44.07070000     -35.08020000     -75.68030000
C      -43.39500000     -36.97800000     -71.41710000
H      -42.69020000     -37.61530000     -71.96830000
H      -43.99170000     -37.61570000     -70.79340000
C      -47.98060000     -35.70160000     -73.32330000
H      -48.51410000     -36.06200000     -74.18650000
H      -48.09790000     -36.29970000     -72.39450000
S      -42.30200000     -35.65320000     -70.77910000
S      -48.77410000     -34.00070000     -73.04280000
C      -43.51820000     -34.28720000     -70.38480000
H      -44.41700000     -34.73400000     -70.04190000
H      -43.31500000     -33.82260000     -69.48860000
C      -47.42460000     -33.17950000     -72.14000000
H      -47.57640000     -32.05110000     -72.17440000
H      -46.53700000     -33.37230000     -72.69610000
C      -47.12440000     -33.50540000     -70.61050000
H      -48.00320000     -33.78030000     -70.08480000
H      -46.48490000     -34.38920000     -70.56590000
C      -43.65640000     -33.19340000     -71.48410000
H      -44.49220000     -33.37080000     -72.13190000
H      -42.79750000     -33.02400000     -72.12290000
C      -43.95640000     -31.90130000     -70.70780000
C      -42.98170000     -30.98320000     -70.46020000
C      -45.21450000     -31.61300000     -70.04390000
H      -41.91640000     -31.03130000     -70.64220000
C      -45.15370000     -30.43920000     -69.31340000
C      -46.59590000     -32.14870000     -70.05940000
C      -47.46940000     -31.33320000     -69.37880000
S      -43.57970000     -29.66130000     -69.54000000
S      -46.66760000     -29.96820000     -68.54100000
H      -48.51390000     -31.53720000     -69.07560000
