40
Properties=species:S:1:pos:R:3 #=T CELL(abcABC):=T 1.889726e+02=T 90.00000=T Traj:=T positionsangstrom=T Step:=T 0=T Bead:=T pbc="F F F"
C      -46.14580000     -35.27880000     -74.48190000
C      -46.68560000     -35.80910000     -73.29700000
C      -45.77070000     -36.38750000     -72.38160000
C      -44.40040000     -36.39790000     -72.66570000
C      -43.95550000     -36.03860000     -73.93130000
C      -44.82110000     -35.48370000     -74.89580000
H      -46.80160000     -34.78400000     -75.15860000
H      -46.17170000     -36.88800000     -71.55130000
H      -42.94140000     -36.15390000     -74.18310000
H      -44.37570000     -35.20800000     -75.88830000
C      -43.45090000     -37.12940000     -71.80650000
H      -42.76400000     -37.73240000     -72.39660000
H      -43.97850000     -37.84490000     -71.23080000
C      -48.15750000     -35.70460000     -73.02610000
H      -48.63510000     -36.35970000     -73.76930000
H      -48.55280000     -36.11940000     -72.09820000
S      -42.46870000     -36.03800000     -70.64200000
S      -48.74120000     -33.91060000     -73.14050000
C      -43.49390000     -34.65340000     -70.10710000
H      -44.42090000     -35.07590000     -69.72760000
H      -42.95840000     -34.17420000     -69.24080000
C      -47.36890000     -32.85920000     -72.27740000
H      -47.71250000     -31.87520000     -72.41770000
H      -46.47640000     -32.94860000     -72.95560000
C      -47.04210000     -33.09530000     -70.81830000
H      -48.01310000     -33.37950000     -70.37610000
H      -46.30830000     -33.89790000     -70.72170000
C      -43.71200000     -33.52720000     -71.09020000
H      -44.47540000     -33.80380000     -71.81050000
H      -42.86870000     -33.27920000     -71.77440000
C      -43.90760000     -32.15550000     -70.35650000
C      -42.82850000     -31.33900000     -70.07440000
C      -45.15240000     -31.49180000     -70.08110000
H      -41.82270000     -31.66700000     -70.32760000
C      -44.99160000     -30.28030000     -69.45900000
C      -46.54000000     -31.83410000     -70.19830000
C      -47.39600000     -31.02670000     -69.47630000
S      -43.38040000     -29.72270000     -69.48330000
S      -46.45960000     -29.57400000     -68.92150000
H      -48.46010000     -31.22350000     -69.53960000
