40
Properties=species:S:1:pos:R:3 #=T CELL(abcABC):=T 1.889726e+02=T 90.00000=T Traj:=T positionsangstrom=T Step:=T 0=T Bead:=T pbc="F F F"
C      -45.88160000     -36.37970000     -74.51240000
C      -46.13520000     -36.24900000     -73.12430000
C      -45.04610000     -36.12620000     -72.29780000
C      -43.70400000     -36.24260000     -72.78330000
C      -43.45730000     -36.30950000     -74.14940000
C      -44.59520000     -36.33420000     -74.96250000
H      -46.66650000     -36.51070000     -75.32760000
H      -45.15180000     -36.12450000     -71.24770000
H      -42.51620000     -36.39510000     -74.69270000
H      -44.54980000     -36.47970000     -76.03980000
C      -42.50330000     -36.33580000     -71.87150000
H      -41.62620000     -36.92200000     -72.23160000
H      -42.72980000     -36.73380000     -70.90690000
C      -47.52080000     -36.23060000     -72.54940000
H      -48.09450000     -37.06790000     -72.89120000
H      -47.49630000     -36.28250000     -71.43820000
S      -41.79480000     -34.68640000     -71.49230000
S      -48.41110000     -34.71580000     -73.13050000
C      -43.18550000     -33.71050000     -70.79010000
H      -44.04790000     -34.30390000     -70.76120000
H      -42.89860000     -33.49780000     -69.73930000
C      -47.35670000     -33.33510000     -72.61960000
H      -47.97080000     -32.45210000     -72.82950000
H      -46.55590000     -33.29540000     -73.34580000
C      -46.82160000     -33.41080000     -71.13840000
H      -47.39890000     -34.17280000     -70.57980000
H      -45.87660000     -33.92130000     -71.23140000
C      -43.54280000     -32.32620000     -71.44230000
H      -44.19070000     -32.51550000     -72.26680000
H      -42.58820000     -31.87090000     -71.78570000
C      -44.14290000     -31.44320000     -70.41630000
C      -43.47830000     -30.50410000     -69.72360000
C      -45.57290000     -31.42960000     -69.97050000
H      -42.39150000     -30.34690000     -69.66050000
C      -45.82010000     -30.43810000     -69.03930000
C      -46.80320000     -32.11520000     -70.33970000
C      -47.92570000     -31.61580000     -69.70260000
S      -44.37030000     -29.59870000     -68.50760000
S      -47.53440000     -30.28010000     -68.62750000
H      -48.97780000     -31.86170000     -69.83570000
