40
Properties=species:S:1:pos:R:3 #=T CELL(abcABC):=T 1.889726e+02=T 90.00000=T Traj:=T positionsangstrom=T Step:=T 0=T Bead:=T pbc="F F F"
C      -45.78980000     -36.66190000     -74.55370000
C      -45.91350000     -36.29710000     -73.22260000
C      -44.71720000     -36.05460000     -72.49830000
C      -43.47300000     -36.00270000     -73.16210000
C      -43.40530000     -36.25860000     -74.53080000
C      -44.56980000     -36.55430000     -75.24770000
H      -46.73310000     -36.93450000     -75.04020000
H      -44.63640000     -35.89990000     -71.35850000
H      -42.42030000     -36.36930000     -74.97520000
H      -44.52240000     -36.75370000     -76.34850000
C      -42.23160000     -35.77560000     -72.38480000
H      -41.38080000     -36.32640000     -72.83240000
H      -42.44000000     -36.09740000     -71.37340000
C      -47.24900000     -36.22670000     -72.55140000
H      -47.89150000     -37.05830000     -72.92400000
H      -47.19940000     -36.32760000     -71.47880000
S      -41.70030000     -34.01880000     -72.33060000
S      -48.18250000     -34.74140000     -73.02800000
C      -42.52370000     -33.35050000     -70.78460000
H      -42.63350000     -34.22730000     -70.09100000
H      -41.81080000     -32.64950000     -70.24870000
C      -47.17150000     -33.44920000     -72.21900000
H      -47.61120000     -32.45180000     -72.32890000
H      -46.09420000     -33.44970000     -72.46460000
C      -47.20990000     -33.64710000     -70.60250000
H      -48.12920000     -34.11370000     -70.26400000
H      -46.41520000     -34.32400000     -70.32310000
C      -43.93140000     -32.81530000     -71.12690000
H      -44.58330000     -33.59310000     -71.41850000
H      -43.75170000     -32.21850000     -72.09420000
C      -44.44590000     -31.79410000     -70.12380000
C      -43.68420000     -30.75890000     -69.66470000
C      -45.87100000     -31.61590000     -69.73490000
H      -42.58950000     -30.76860000     -69.80800000
C      -46.05500000     -30.53250000     -68.90650000
C      -47.08640000     -32.35620000     -69.83030000
C      -48.12310000     -31.77800000     -69.14240000
S      -44.58980000     -29.67910000     -68.58430000
S      -47.70880000     -30.28730000     -68.31590000
H      -49.13060000     -32.22790000     -69.16060000
