40
Properties=species:S:1:pos:R:3 #=T CELL(abcABC):=T 1.889726e+02=T 90.00000=T Traj:=T positionsangstrom=T Step:=T 0=T Bead:=T pbc="F F F"
C      -45.80740000     -36.36480000     -74.34320000
C      -45.81930000     -36.30750000     -72.93390000
C      -44.63260000     -35.99510000     -72.23290000
C      -43.40960000     -35.86500000     -72.98680000
C      -43.37030000     -36.24650000     -74.26710000
C      -44.56970000     -36.46400000     -74.96640000
H      -46.69120000     -36.53610000     -74.89170000
H      -44.50110000     -35.83030000     -71.11730000
H      -42.50230000     -36.17430000     -74.85880000
H      -44.59800000     -36.58650000     -76.02160000
C      -42.05480000     -35.52480000     -72.29890000
H      -41.15610000     -36.17950000     -72.50420000
H      -42.11550000     -35.56560000     -71.21730000
C      -47.14150000     -36.62580000     -72.22180000
H      -47.74070000     -37.45120000     -72.61340000
H      -47.08450000     -36.72350000     -71.08520000
S      -41.64040000     -33.77360000     -72.65240000
S      -48.40940000     -35.23480000     -72.38570000
C      -42.63720000     -32.96730000     -71.31540000
H      -42.76810000     -33.69070000     -70.46260000
H      -41.99350000     -32.14950000     -71.05630000
C      -47.39750000     -33.84900000     -71.66170000
H      -48.17970000     -33.10250000     -71.57660000
H      -46.70170000     -33.64450000     -72.44050000
C      -46.73310000     -34.09750000     -70.27480000
H      -47.28570000     -34.82330000     -69.69450000
H      -45.71830000     -34.38100000     -70.43250000
C      -44.00620000     -32.39940000     -71.74210000
H      -44.62920000     -33.20130000     -71.96870000
H      -43.95320000     -31.85000000     -72.70070000
C      -44.63000000     -31.36740000     -70.77640000
C      -44.15590000     -30.13680000     -70.60160000
C      -45.74520000     -31.65100000     -69.85280000
H      -43.35910000     -29.71460000     -71.13070000
C      -46.08040000     -30.50900000     -69.05020000
C      -46.70290000     -32.71790000     -69.62680000
C      -47.67800000     -32.32810000     -68.66180000
S      -44.96310000     -29.20220000     -69.33810000
S      -47.51420000     -30.74750000     -68.07470000
H      -48.47880000     -32.92790000     -68.27970000
