40
Properties=species:S:1:pos:R:3 #=T CELL(abcABC):=T 1.889726e+02=T 90.00000=T Traj:=T positionsangstrom=T Step:=T 0=T Bead:=T pbc="F F F"
C      -45.79680000     -36.49910000     -74.29170000
C      -45.74350000     -36.36760000     -72.93540000
C      -44.44250000     -36.06180000     -72.34200000
C      -43.26520000     -35.87610000     -73.13150000
C      -43.36650000     -36.19810000     -74.51120000
C      -44.58620000     -36.58800000     -75.06960000
H      -46.67620000     -36.58810000     -74.83570000
H      -44.38640000     -36.00510000     -71.20530000
H      -42.44940000     -36.39110000     -75.07120000
H      -44.60080000     -36.91300000     -76.06610000
C      -42.01640000     -35.47660000     -72.43760000
H      -41.19380000     -35.94910000     -72.99970000
H      -42.01060000     -35.84730000     -71.43620000
C      -46.95570000     -36.68900000     -72.09560000
H      -47.32930000     -37.69410000     -72.34460000
H      -46.63960000     -36.91370000     -71.09700000
S      -41.77510000     -33.72590000     -72.55760000
S      -48.31290000     -35.37850000     -72.15290000
C      -42.75300000     -32.87770000     -71.20690000
H      -42.94220000     -33.39170000     -70.28760000
H      -42.08630000     -31.96340000     -70.92130000
C      -47.48330000     -33.82350000     -71.71340000
H      -48.17930000     -32.99510000     -71.82570000
H      -46.67500000     -33.55040000     -72.44840000
C      -46.84960000     -33.93040000     -70.29970000
H      -47.49250000     -34.61270000     -69.68210000
H      -45.86710000     -34.45150000     -70.46100000
C      -44.08890000     -32.31220000     -71.81600000
H      -44.66950000     -33.11790000     -72.06040000
H      -43.78720000     -31.73450000     -72.74500000
C      -44.72620000     -31.35470000     -70.80940000
C      -44.13490000     -30.17370000     -70.58490000
C      -45.83870000     -31.60790000     -69.96100000
H      -43.34900000     -29.60420000     -71.04930000
C      -46.12890000     -30.43870000     -69.17500000
C      -46.68650000     -32.65730000     -69.58380000
C      -47.61420000     -32.41630000     -68.56230000
S      -45.03040000     -29.16770000     -69.40490000
S      -47.46710000     -30.70210000     -68.04210000
H      -48.39450000     -33.11110000     -68.36480000
