40
Properties=species:S:1:pos:R:3 #=T CELL(abcABC):=T 1.889726e+02=T 90.00000=T Traj:=T positionsangstrom=T Step:=T 0=T Bead:=T pbc="F F F"
C      -45.63600000     -36.50500000     -74.58740000
C      -45.84730000     -36.33360000     -73.18950000
C      -44.73320000     -36.18590000     -72.40210000
C      -43.42430000     -36.09030000     -72.96730000
C      -43.25060000     -36.14140000     -74.35030000
C      -44.39540000     -36.36820000     -75.17720000
H      -46.48160000     -36.61940000     -75.30790000
H      -44.84920000     -36.18110000     -71.36870000
H      -42.21930000     -35.94120000     -74.66420000
H      -44.31100000     -36.45780000     -76.26390000
C      -42.33410000     -35.63810000     -72.10730000
H      -41.46080000     -36.29280000     -72.23010000
H      -42.54460000     -35.53820000     -71.02050000
C      -47.15300000     -36.31300000     -72.49590000
H      -47.63400000     -37.25130000     -72.62340000
H      -47.00270000     -36.40030000     -71.45150000
S      -41.62870000     -33.94740000     -72.67180000
S      -48.41120000     -34.95960000     -72.89500000
C      -42.43380000     -32.81560000     -71.32930000
H      -42.04710000     -33.17230000     -70.34400000
H      -42.01850000     -31.83980000     -71.63690000
C      -47.67410000     -33.50810000     -72.02600000
H      -48.48320000     -32.75810000     -71.94000000
H      -46.84530000     -33.16730000     -72.69670000
C      -47.27510000     -33.82140000     -70.52130000
H      -48.09300000     -34.40870000     -70.11930000
H      -46.34510000     -34.37760000     -70.42790000
C      -43.97360000     -32.75900000     -71.31990000
H      -44.34060000     -33.77770000     -71.12170000
H      -44.19220000     -32.44900000     -72.27840000
C      -44.52370000     -31.67440000     -70.36280000
C      -43.81100000     -30.54520000     -70.00090000
C      -45.83960000     -31.69680000     -69.74020000
H      -42.87430000     -30.20150000     -70.34070000
C      -45.99940000     -30.58320000     -68.90350000
C      -47.05480000     -32.53130000     -69.75580000
C      -47.95570000     -31.99890000     -68.81890000
S      -44.65260000     -29.49570000     -68.85410000
S      -47.51810000     -30.56010000     -67.92820000
H      -48.93070000     -32.44310000     -68.58510000
