40
Properties=species:S:1:pos:R:3 #=T CELL(abcABC):=T 1.889726e+02=T 90.00000=T Traj:=T positionsangstrom=T Step:=T 0=T Bead:=T pbc="F F F"
C      -44.22250000     -30.00850000     -72.42660000
C      -43.39010000     -31.11280000     -72.48840000
C      -43.62070000     -32.08060000     -73.51260000
C      -44.70260000     -32.05330000     -74.34130000
C      -45.63090000     -31.01300000     -74.16690000
C      -45.32470000     -29.99080000     -73.26780000
H      -44.07180000     -29.25910000     -71.62360000
H      -42.78960000     -32.84140000     -73.61620000
H      -46.46370000     -30.91070000     -74.91300000
H      -45.99990000     -29.18100000     -73.08500000
C      -44.80840000     -33.07230000     -75.37460000
H      -44.00970000     -32.86600000     -76.14900000
H      -45.84790000     -32.93320000     -75.90740000
C      -42.14450000     -31.17490000     -71.64620000
H      -41.63780000     -32.12910000     -71.91460000
H      -41.35160000     -30.41280000     -71.86470000
S      -44.48240000     -34.82800000     -74.96880000
S      -42.34880000     -31.20590000     -69.82130000
C      -45.58410000     -35.38600000     -73.55480000
H      -46.57940000     -35.52780000     -74.01790000
H      -45.34770000     -36.47020000     -73.49380000
C      -43.64780000     -32.48670000     -69.54050000
H      -43.68050000     -32.75190000     -68.46110000
H      -43.45550000     -33.27570000     -70.24710000
C      -45.18710000     -32.02470000     -69.77960000
H      -45.55260000     -31.13330000     -69.21650000
H      -45.27000000     -31.88910000     -70.82610000
C      -45.50490000     -34.53020000     -72.27160000
H      -45.91670000     -33.53530000     -72.43810000
H      -44.42670000     -34.38030000     -72.11130000
C      -46.26950000     -35.16370000     -71.06860000
C      -46.92050000     -36.36660000     -71.12690000
C      -46.42390000     -34.42870000     -69.84970000
H      -46.88990000     -37.11300000     -71.89570000
C      -47.27620000     -35.21670000     -69.02820000
C      -46.13590000     -33.14860000     -69.26350000
C      -46.72420000     -33.00300000     -68.02440000
S      -47.71810000     -36.74390000     -69.60270000
S      -47.74120000     -34.34910000     -67.55740000
H      -46.41060000     -32.30550000     -67.26390000
