40
Properties=species:S:1:pos:R:3 #=T CELL(abcABC):=T 1.889726e+02=T 90.00000=T Traj:=T positionsangstrom=T Step:=T 0=T Bead:=T pbc="F F F"
C      -45.67340000     -36.31710000     -74.08560000
C      -45.33220000     -36.57080000     -72.73100000
C      -44.06450000     -36.22670000     -72.20560000
C      -43.25460000     -35.43390000     -72.98770000
C      -43.52210000     -35.18920000     -74.36860000
C      -44.75040000     -35.63570000     -74.89700000
H      -46.61760000     -36.62500000     -74.47760000
H      -43.88120000     -36.42960000     -71.18230000
H      -42.85590000     -34.72390000     -75.09420000
H      -44.92690000     -35.49890000     -75.96600000
C      -41.90660000     -34.84360000     -72.43570000
H      -41.05350000     -35.26740000     -72.93340000
H      -41.78100000     -34.89280000     -71.34610000
C      -46.28530000     -37.33160000     -71.83980000
H      -46.70130000     -38.25160000     -72.21820000
H      -45.79300000     -37.50700000     -70.94850000
S      -41.82960000     -33.02190000     -72.87530000
S      -47.88790000     -36.30640000     -71.50080000
C      -42.89950000     -32.23580000     -71.59730000
H      -42.91080000     -32.65880000     -70.56520000
H      -42.54970000     -31.16560000     -71.55570000
C      -47.21800000     -34.61150000     -71.44480000
H      -48.08040000     -33.95100000     -71.43600000
H      -46.62820000     -34.33870000     -72.37780000
C      -46.26790000     -34.37180000     -70.19350000
H      -46.46670000     -35.16970000     -69.39230000
H      -45.31250000     -34.53410000     -70.58930000
C      -44.33030000     -32.09030000     -72.08090000
H      -44.87680000     -33.07390000     -72.11860000
H      -44.47930000     -31.70760000     -73.05590000
C      -45.05570000     -31.24850000     -71.11320000
C      -44.95220000     -29.86100000     -71.15010000
C      -45.88220000     -31.68500000     -69.99790000
H      -44.29100000     -29.43640000     -71.84930000
C      -46.40740000     -30.64270000     -69.28800000
C      -46.44290000     -32.99240000     -69.55450000
C      -47.23950000     -32.82380000     -68.43410000
S      -45.87930000     -29.08150000     -69.85890000
S      -47.41030000     -31.09250000     -67.96200000
H      -47.93010000     -33.54290000     -67.98130000
