40
Properties=species:S:1:pos:R:3 #=T CELL(abcABC):=T 1.889726e+02=T 90.00000=T Traj:=T positionsangstrom=T Step:=T 0=T Bead:=T pbc="F F F"
C      -45.62540000     -36.31940000     -74.00470000
C      -45.00410000     -36.36080000     -72.74990000
C      -43.70760000     -35.79940000     -72.64760000
C      -43.10980000     -35.00310000     -73.65410000
C      -43.86000000     -34.78380000     -74.83420000
C      -45.14700000     -35.42740000     -74.97520000
H      -46.53550000     -36.83180000     -74.15030000
H      -43.16880000     -35.84690000     -71.67610000
H      -43.47510000     -34.15770000     -75.61260000
H      -45.75750000     -35.28130000     -75.84360000
C      -41.77500000     -34.36710000     -73.39430000
H      -41.09350000     -34.54730000     -74.21500000
H      -41.23840000     -34.81520000     -72.55020000
C      -45.60160000     -37.03910000     -71.55250000
H      -45.43980000     -38.16190000     -71.70480000
H      -45.04250000     -36.81150000     -70.65630000
S      -41.90230000     -32.57030000     -73.17400000
S      -47.33630000     -36.56010000     -71.24750000
C      -42.85910000     -32.13510000     -71.67720000
H      -42.51610000     -32.73850000     -70.89150000
H      -42.56830000     -31.07380000     -71.56430000
C      -47.10770000     -34.82360000     -70.85770000
H      -48.05480000     -34.29220000     -70.64990000
H      -46.68650000     -34.30310000     -71.76850000
C      -46.18520000     -34.55840000     -69.61020000
H      -46.54750000     -35.23690000     -68.76480000
H      -45.19770000     -34.76060000     -69.79910000
C      -44.38280000     -32.49980000     -71.79900000
H      -44.54200000     -33.61430000     -71.63950000
H      -44.75050000     -32.29750000     -72.78340000
C      -45.21350000     -31.56720000     -70.90800000
C      -45.20600000     -30.20350000     -71.11540000
C      -45.98120000     -31.92680000     -69.74660000
H      -44.53980000     -29.72840000     -71.83910000
C      -46.64040000     -30.80130000     -69.20680000
C      -46.40680000     -33.17180000     -69.09450000
C      -47.27100000     -32.92860000     -68.05730000
S      -46.36360000     -29.31750000     -70.15780000
S      -47.62620000     -31.21880000     -67.85980000
H      -47.71800000     -33.75890000     -67.47560000
