40
Properties=species:S:1:pos:R:3 #=T CELL(abcABC):=T 1.889726e+02=T 90.00000=T Traj:=T positionsangstrom=T Step:=T 0=T Bead:=T pbc="F F F"
C      -45.76010000     -36.27360000     -74.09670000
C      -45.25210000     -36.64200000     -72.83660000
C      -44.01280000     -36.17730000     -72.35120000
C      -43.25620000     -35.30480000     -73.11080000
C      -43.67010000     -34.98760000     -74.44120000
C      -44.86560000     -35.57870000     -74.94220000
H      -46.72170000     -36.66970000     -74.48160000
H      -43.61400000     -36.54190000     -71.37040000
H      -43.02480000     -34.45190000     -75.11560000
H      -45.16850000     -35.29770000     -75.95460000
C      -41.94550000     -34.73920000     -72.56490000
H      -41.04180000     -35.22180000     -72.98320000
H      -41.93230000     -35.06620000     -71.49640000
C      -46.13400000     -37.41990000     -71.95700000
H      -46.56500000     -38.35830000     -72.43560000
H      -45.43340000     -37.74540000     -71.08300000
S      -41.68040000     -33.00790000     -72.96760000
S      -47.59770000     -36.43110000     -71.46260000
C      -42.88300000     -32.12680000     -71.85580000
H      -42.65170000     -32.32780000     -70.82030000
H      -42.57040000     -31.07170000     -72.02100000
C      -47.25690000     -34.63930000     -71.14670000
H      -48.22550000     -34.14470000     -71.04580000
H      -46.83290000     -34.18340000     -72.03970000
C      -46.35500000     -34.40870000     -69.94180000
H      -46.49310000     -35.12500000     -69.15200000
H      -45.27940000     -34.46110000     -70.20480000
C      -44.42680000     -32.23720000     -72.05290000
H      -44.68320000     -33.30340000     -71.77230000
H      -44.62690000     -32.23310000     -73.13520000
C      -45.20120000     -31.34310000     -71.14690000
C      -45.16410000     -29.96230000     -71.25530000
C      -46.03730000     -31.70120000     -69.97310000
H      -44.55800000     -29.42150000     -71.96000000
C      -46.48340000     -30.64630000     -69.25480000
C      -46.55580000     -32.96010000     -69.44460000
C      -47.27690000     -32.72650000     -68.28110000
S      -45.93320000     -29.10040000     -69.88880000
S      -47.40360000     -31.03990000     -67.79690000
H      -47.66070000     -33.52450000     -67.63630000
