40
Properties=species:S:1:pos:R:3 #=T CELL(abcABC):=T 1.889726e+02=T 90.00000=T Traj:=T positionsangstrom=T Step:=T 0=T Bead:=T pbc="F F F"
C      -44.18440000     -30.14040000     -72.34500000
C      -43.25350000     -31.20550000     -72.50240000
C      -43.52720000     -32.23580000     -73.44460000
C      -44.64150000     -32.13440000     -74.28970000
C      -45.40050000     -30.97520000     -74.21000000
C      -45.28890000     -30.07320000     -73.17480000
H      -44.02720000     -29.34500000     -71.57100000
H      -42.92420000     -33.15550000     -73.32040000
H      -46.34780000     -30.99740000     -74.72240000
H      -45.99600000     -29.21480000     -73.03610000
C      -45.10650000     -33.21430000     -75.26340000
H      -44.87960000     -32.93020000     -76.28350000
H      -46.11470000     -33.26320000     -75.19070000
C      -41.98420000     -31.40540000     -71.57480000
H      -41.50640000     -32.37960000     -71.66170000
H      -41.30780000     -30.61360000     -71.88780000
S      -44.39180000     -34.90970000     -74.98320000
S      -42.53610000     -31.14270000     -69.79540000
C      -45.47580000     -35.55260000     -73.57930000
H      -46.47490000     -35.57310000     -73.93540000
H      -45.08950000     -36.53830000     -73.21080000
C      -43.67210000     -32.51840000     -69.43910000
H      -43.49960000     -32.70060000     -68.35110000
H      -43.41300000     -33.50020000     -69.90890000
C      -45.11290000     -32.14760000     -69.94700000
H      -45.28980000     -31.05160000     -69.68440000
H      -45.17600000     -32.05340000     -71.02260000
C      -45.35760000     -34.59100000     -72.29110000
H      -45.83040000     -33.65250000     -72.64990000
H      -44.31070000     -34.54860000     -71.98540000
C      -46.27860000     -35.09740000     -71.11030000
C      -46.94920000     -36.22690000     -71.21520000
C      -46.54680000     -34.33220000     -69.93060000
H      -46.79800000     -36.97480000     -71.95500000
C      -47.39220000     -35.07120000     -69.05000000
C      -46.14220000     -33.07520000     -69.34810000
C      -46.67930000     -32.82830000     -68.12400000
S      -47.89310000     -36.63100000     -69.69230000
S      -47.66840000     -34.18690000     -67.47450000
H      -46.64570000     -31.86740000     -67.54700000
