40
Properties=species:S:1:pos:R:3 #=T CELL(abcABC):=T 1.889726e+02=T 90.00000=T Traj:=T positionsangstrom=T Step:=T 0=T Bead:=T pbc="F F F"
C      -45.61480000     -36.41940000     -73.62190000
C      -44.69550000     -36.47960000     -72.56050000
C      -43.52760000     -35.66350000     -72.54710000
C      -43.27390000     -34.80550000     -73.61890000
C      -44.16810000     -34.76190000     -74.69740000
C      -45.35890000     -35.48270000     -74.64140000
H      -46.48560000     -37.00250000     -73.68220000
H      -42.73770000     -35.66300000     -71.79210000
H      -44.04810000     -34.10060000     -75.52950000
H      -46.08830000     -35.28150000     -75.43230000
C      -42.03850000     -34.00960000     -73.52030000
H      -41.42150000     -34.16970000     -74.43960000
H      -41.52680000     -34.50030000     -72.59970000
C      -44.99930000     -37.39660000     -71.42610000
H      -45.04800000     -38.45620000     -71.52440000
H      -44.19220000     -37.27490000     -70.65030000
S      -42.13630000     -32.17830000     -73.25120000
S      -46.66380000     -37.05130000     -70.79190000
C      -43.31110000     -32.05290000     -71.83410000
H      -42.94820000     -32.68790000     -71.03820000
H      -43.06380000     -31.02340000     -71.53820000
C      -46.87690000     -35.21150000     -70.77230000
H      -47.87230000     -35.08990000     -70.27100000
H      -46.85830000     -34.83400000     -71.80630000
C      -45.82080000     -34.54400000     -69.84760000
H      -45.73200000     -35.24470000     -68.91950000
H      -44.88310000     -34.59960000     -70.34870000
C      -44.77450000     -32.06020000     -72.36420000
H      -45.10740000     -33.11050000     -72.57180000
H      -44.74480000     -31.57070000     -73.31600000
C      -45.65320000     -31.31040000     -71.36620000
C      -45.86880000     -29.95890000     -71.43340000
C      -46.14010000     -31.83400000     -70.08290000
H      -45.61220000     -29.31480000     -72.28550000
C      -46.70220000     -30.82520000     -69.24710000
C      -46.24600000     -33.13350000     -69.44040000
C      -47.02780000     -33.00100000     -68.30390000
S      -46.72410000     -29.31880000     -70.06230000
S      -47.29630000     -31.42280000     -67.73610000
H      -47.39280000     -33.77210000     -67.68470000
