40
Properties=species:S:1:pos:R:3 #=T CELL(abcABC):=T 1.889726e+02=T 90.00000=T Traj:=T positionsangstrom=T Step:=T 0=T Bead:=T pbc="F F F"
C      -45.45800000     -36.39460000     -73.78300000
C      -44.62760000     -36.49220000     -72.64890000
C      -43.51910000     -35.73390000     -72.47620000
C      -43.09150000     -34.88470000     -73.55490000
C      -43.76380000     -34.86090000     -74.78360000
C      -44.97230000     -35.62000000     -74.81050000
H      -46.44400000     -36.87440000     -73.84440000
H      -42.99580000     -35.72420000     -71.53510000
H      -43.56640000     -34.27520000     -75.66370000
H      -45.66600000     -35.54350000     -75.63480000
C      -41.90220000     -34.00410000     -73.29450000
H      -41.16300000     -34.18540000     -74.15190000
H      -41.37420000     -34.33150000     -72.37000000
C      -44.98990000     -37.40940000     -71.53460000
H      -45.19400000     -38.40960000     -71.98920000
H      -44.17750000     -37.54440000     -70.85540000
S      -42.33360000     -32.16020000     -73.33930000
S      -46.57490000     -37.04040000     -70.51790000
C      -43.49260000     -31.85930000     -71.95220000
H      -43.22600000     -32.67340000     -71.24560000
H      -43.24420000     -30.88110000     -71.49400000
C      -46.68000000     -35.18720000     -70.60960000
H      -47.53720000     -35.01500000     -70.00010000
H      -46.78950000     -34.83640000     -71.67860000
C      -45.51930000     -34.39030000     -69.87690000
H      -45.17940000     -34.90280000     -69.01600000
H      -44.67060000     -34.32210000     -70.61460000
C      -44.93540000     -31.96870000     -72.45660000
H      -45.24650000     -32.98710000     -72.53710000
H      -44.94260000     -31.51960000     -73.46110000
C      -45.85130000     -31.23150000     -71.43610000
C      -46.13880000     -29.88730000     -71.47900000
C      -46.18150000     -31.77980000     -70.12830000
H      -45.95720000     -29.14100000     -72.26460000
C      -46.85390000     -30.87380000     -69.29330000
C      -46.11430000     -33.08680000     -69.44990000
C      -46.74610000     -33.09700000     -68.22740000
S      -47.06330000     -29.34360000     -70.08300000
S      -47.37030000     -31.51420000     -67.70970000
H      -46.81800000     -34.00620000     -67.57310000
