40
Properties=species:S:1:pos:R:3 #=T CELL(abcABC):=T 1.889726e+02=T 90.00000=T Traj:=T positionsangstrom=T Step:=T 0=T Bead:=T pbc="F F F"
C      -44.94990000     -36.50540000     -73.53100000
C      -44.22420000     -36.19090000     -72.37340000
C      -43.22170000     -35.18130000     -72.45440000
C      -42.96770000     -34.52800000     -73.66880000
C      -43.70230000     -34.88520000     -74.80610000
C      -44.74770000     -35.82400000     -74.72920000
H      -45.74980000     -37.21300000     -73.39200000
H      -42.67950000     -35.01670000     -71.52600000
H      -43.66330000     -34.36450000     -75.71720000
H      -45.40550000     -35.84300000     -75.59180000
C      -41.94610000     -33.42980000     -73.63700000
H      -41.19830000     -33.40210000     -74.43480000
H      -41.41160000     -33.31710000     -72.63250000
C      -44.41800000     -37.09760000     -71.16750000
H      -44.14980000     -38.14960000     -71.29680000
H      -43.64050000     -36.73110000     -70.39490000
S      -42.79060000     -31.84190000     -73.78650000
S      -46.08680000     -37.15760000     -70.41060000
C      -43.86720000     -31.64710000     -72.26900000
H      -43.51030000     -32.25130000     -71.49740000
H      -44.02270000     -30.60480000     -72.04260000
C      -46.49800000     -35.37450000     -70.56960000
H      -47.40740000     -35.23480000     -70.06090000
H      -46.62970000     -35.18740000     -71.69440000
C      -45.34400000     -34.41720000     -69.91490000
H      -44.88420000     -34.96460000     -69.11360000
H      -44.59010000     -34.16150000     -70.70680000
C      -45.30380000     -32.15790000     -72.45670000
H      -45.43100000     -33.26060000     -72.38440000
H      -45.73280000     -31.93300000     -73.50600000
C      -46.09720000     -31.52440000     -71.37350000
C      -46.61960000     -30.23870000     -71.46270000
C      -46.43890000     -32.05500000     -70.05580000
H      -46.58650000     -29.61560000     -72.36600000
C      -47.09570000     -31.08310000     -69.27020000
C      -46.08890000     -33.20590000     -69.30220000
C      -46.44130000     -33.02210000     -67.97370000
S      -47.61010000     -29.68270000     -70.14770000
S      -47.21460000     -31.59010000     -67.60730000
H      -46.36320000     -33.80520000     -67.25010000
