40
Properties=species:S:1:pos:R:3 #=T CELL(abcABC):=T 1.889726e+02=T 90.00000=T Traj:=T positionsangstrom=T Step:=T 0=T Bead:=T pbc="F F F"
C      -44.02780000     -29.57490000     -70.60460000
C      -45.32580000     -29.87790000     -70.12870000
C      -45.40610000     -30.86990000     -69.02960000
C      -44.25900000     -31.43530000     -68.50170000
C      -43.02650000     -31.13560000     -69.07570000
C      -42.91090000     -30.24830000     -70.07550000
H      -43.94850000     -28.81200000     -71.27560000
H      -46.25390000     -31.35510000     -68.79500000
H      -42.18620000     -31.74130000     -68.80540000
H      -41.94240000     -29.88730000     -70.43290000
C      -44.31510000     -32.49920000     -67.45040000
H      -45.41120000     -32.59240000     -67.07010000
H      -43.69030000     -32.22830000     -66.57180000
C      -46.59540000     -29.29410000     -70.70170000
H      -47.08660000     -28.62010000     -69.97580000
H      -46.34500000     -28.66420000     -71.59230000
S      -43.69120000     -34.22620000     -68.12420000
S      -47.81160000     -30.58220000     -71.29650000
C      -44.61180000     -34.64370000     -69.64580000
H      -44.70620000     -35.74340000     -69.64590000
H      -45.65720000     -34.33860000     -69.59180000
C      -46.79570000     -31.97770000     -72.03990000
H      -45.71820000     -31.87160000     -71.74150000
H      -46.63260000     -31.90270000     -73.16870000
C      -47.35860000     -33.36690000     -71.70440000
H      -46.93280000     -33.66680000     -70.74400000
H      -48.43070000     -33.48810000     -71.75970000
C      -43.92810000     -34.20510000     -70.94330000
H      -42.86280000     -34.11260000     -70.91410000
H      -44.18340000     -33.10810000     -71.21660000
C      -44.34040000     -35.04960000     -72.05840000
C      -43.39590000     -35.88380000     -72.61250000
C      -45.56660000     -35.12360000     -72.76350000
H      -42.34920000     -36.01340000     -72.20150000
C      -45.57450000     -36.07370000     -73.74040000
C      -46.85540000     -34.39300000     -72.71740000
C      -47.79650000     -34.94730000     -73.56280000
S      -44.01870000     -36.93320000     -73.85040000
S      -47.06990000     -36.20230000     -74.62300000
H      -48.80880000     -34.57960000     -73.83830000
