40
Properties=species:S:1:pos:R:3 #=T CELL(abcABC):=T 1.889726e+02=T 90.00000=T Traj:=T positionsangstrom=T Step:=T 0=T Bead:=T pbc="F F F"
C      -43.89630000     -29.73880000     -70.46590000
C      -45.21190000     -30.11330000     -70.15110000
C      -45.39920000     -31.11130000     -69.17500000
C      -44.26240000     -31.64630000     -68.48540000
C      -42.97650000     -31.28400000     -68.81520000
C      -42.80170000     -30.37260000     -69.85680000
H      -43.81410000     -28.98510000     -71.18830000
H      -46.37650000     -31.44620000     -68.97680000
H      -42.15380000     -31.85830000     -68.38140000
H      -41.77350000     -30.07410000     -70.11810000
C      -44.58790000     -32.70350000     -67.47160000
H      -45.63530000     -32.81880000     -67.34210000
H      -44.21250000     -32.37180000     -66.61750000
C      -46.42860000     -29.41820000     -70.89590000
H      -46.88400000     -28.61310000     -70.29640000
H      -46.12050000     -29.02590000     -71.86720000
S      -43.84840000     -34.27890000     -67.91830000
S      -47.73590000     -30.68500000     -71.11370000
C      -44.60620000     -34.89100000     -69.53150000
H      -44.56510000     -35.91950000     -69.78130000
H      -45.65520000     -34.52340000     -69.42800000
C      -47.02640000     -31.95540000     -72.12220000
H      -45.97010000     -31.85120000     -72.06070000
H      -47.40870000     -31.84200000     -73.12260000
C      -47.33810000     -33.42760000     -71.61060000
H      -46.77770000     -33.61570000     -70.68370000
H      -48.40240000     -33.62340000     -71.25670000
C      -44.02130000     -34.19930000     -70.76630000
H      -43.00090000     -34.27120000     -70.60720000
H      -44.30420000     -33.14820000     -70.80150000
C      -44.29670000     -34.94690000     -72.08150000
C      -43.29270000     -35.59240000     -72.78500000
C      -45.57940000     -35.03320000     -72.81940000
H      -42.20140000     -35.66050000     -72.49360000
C      -45.53270000     -35.87130000     -73.89860000
C      -46.94340000     -34.44420000     -72.72590000
C      -47.84040000     -35.02660000     -73.53790000
S      -43.91560000     -36.43140000     -74.19850000
S      -47.07790000     -36.05650000     -74.74250000
H      -48.89960000     -34.71480000     -73.71600000
