40
Properties=species:S:1:pos:R:3 #=T CELL(abcABC):=T 1.889726e+02=T 90.00000=T Traj:=T positionsangstrom=T Step:=T 0=T Bead:=T pbc="F F F"
C      -44.85660000     -36.81860000     -73.43370000
C      -43.79160000     -36.47000000     -72.60950000
C      -43.05200000     -35.28000000     -72.80180000
C      -43.47350000     -34.42840000     -73.80440000
C      -44.56900000     -34.83780000     -74.68340000
C      -45.25440000     -36.00180000     -74.49440000
H      -45.42610000     -37.69340000     -73.19640000
H      -42.18350000     -35.05610000     -72.17340000
H      -44.88940000     -34.14520000     -75.45890000
H      -46.16190000     -36.22490000     -75.04970000
C      -42.72380000     -33.19790000     -74.12500000
H      -42.23410000     -33.36380000     -75.05920000
H      -41.94420000     -33.12310000     -73.37390000
C      -43.50680000     -37.16330000     -71.29530000
H      -43.24610000     -38.19510000     -71.43670000
H      -42.61240000     -36.67000000     -70.90910000
S      -43.43530000     -31.50990000     -74.20240000
S      -45.01270000     -37.09090000     -70.19070000
C      -44.46330000     -31.35930000     -72.62170000
H      -43.84960000     -31.69200000     -71.78080000
H      -44.73030000     -30.29300000     -72.59990000
C      -45.75030000     -35.42150000     -70.38340000
H      -46.69880000     -35.49350000     -69.70960000
H      -46.20320000     -35.31210000     -71.41310000
C      -44.92580000     -34.24630000     -69.90760000
H      -44.20790000     -34.54900000     -69.11890000
H      -44.40300000     -33.75240000     -70.71200000
C      -45.69290000     -32.23850000     -72.50260000
H      -45.51170000     -33.28630000     -72.37200000
H      -46.39640000     -32.15670000     -73.39170000
C      -46.50340000     -31.56270000     -71.34900000
C      -47.26790000     -30.45960000     -71.42190000
C      -46.35280000     -32.00120000     -69.91000000
H      -47.50520000     -30.02690000     -72.34930000
C      -47.02630000     -31.14170000     -69.06360000
C      -45.77960000     -33.17630000     -69.22620000
C      -46.04430000     -33.15190000     -67.84630000
S      -47.85270000     -29.79710000     -69.91160000
S      -46.97630000     -31.65890000     -67.42450000
H      -45.71190000     -33.86040000     -67.06520000
