40
Properties=species:S:1:pos:R:3 #=T CELL(abcABC):=T 1.889726e+02=T 90.00000=T Traj:=T positionsangstrom=T Step:=T 0=T Bead:=T pbc="F F F"
C      -44.79060000     -36.83560000     -73.54580000
C      -43.83760000     -36.40810000     -72.57190000
C      -43.06620000     -35.29990000     -72.78360000
C      -43.33920000     -34.48720000     -73.90330000
C      -44.38970000     -34.79540000     -74.82800000
C      -45.16330000     -35.93150000     -74.49760000
H      -45.27040000     -37.80820000     -73.43190000
H      -42.28790000     -35.02620000     -72.10080000
H      -44.49310000     -34.21850000     -75.75200000
H      -45.89340000     -36.23450000     -75.26580000
C      -42.50820000     -33.24200000     -74.16350000
H      -42.14570000     -33.27500000     -75.21320000
H      -41.68350000     -33.15450000     -73.41870000
C      -43.63760000     -37.08650000     -71.29910000
H      -43.55540000     -38.20150000     -71.31430000
H      -42.82240000     -36.70820000     -70.67880000
S      -43.46220000     -31.66990000     -74.20140000
S      -45.15420000     -37.09590000     -70.18330000
C      -44.18480000     -31.31200000     -72.64690000
H      -43.49380000     -31.57730000     -71.82910000
H      -44.27890000     -30.21270000     -72.53390000
C      -45.82660000     -35.40280000     -70.28170000
H      -46.82220000     -35.54640000     -69.84680000
H      -46.07420000     -35.19450000     -71.29660000
C      -44.89120000     -34.26080000     -69.69560000
H      -44.15740000     -34.76550000     -69.07460000
H      -44.23350000     -33.84050000     -70.47390000
C      -45.60800000     -32.01010000     -72.45300000
H      -45.42440000     -33.03360000     -72.38970000
H      -46.13700000     -31.72650000     -73.40830000
C      -46.39010000     -31.46510000     -71.28720000
C      -47.19970000     -30.38810000     -71.42080000
C      -46.36610000     -32.07240000     -69.92460000
H      -47.39040000     -29.85950000     -72.35310000
C      -47.10820000     -31.23410000     -69.12580000
C      -45.74030000     -33.12490000     -69.17000000
C      -46.04680000     -33.04410000     -67.81980000
S      -47.91470000     -29.79710000     -69.88790000
S      -47.16340000     -31.72890000     -67.47280000
H      -45.67790000     -33.66590000     -67.00140000
