40
Properties=species:S:1:pos:R:3 #=T CELL(abcABC):=T 1.889726e+02=T 90.00000=T Traj:=T positionsangstrom=T Step:=T 0=T Bead:=T pbc="F F F"
C      -44.78410000     -36.57590000     -73.57740000
C      -43.99780000     -36.21300000     -72.47420000
C      -43.10020000     -35.17470000     -72.60050000
C      -42.90090000     -34.54970000     -73.79770000
C      -43.77460000     -34.83690000     -74.86550000
C      -44.71070000     -35.85660000     -74.76440000
H      -45.45720000     -37.38170000     -73.44610000
H      -42.55990000     -34.85360000     -71.73390000
H      -43.72390000     -34.34640000     -75.84840000
H      -45.27560000     -36.20990000     -75.68500000
C      -42.03440000     -33.26810000     -73.85140000
H      -41.44800000     -33.29270000     -74.78660000
H      -41.32510000     -33.34790000     -73.07940000
C      -44.10200000     -36.87330000     -71.17560000
H      -43.77680000     -37.91040000     -71.20730000
H      -43.49990000     -36.31180000     -70.47740000
S      -42.99180000     -31.65560000     -73.86600000
S      -45.85670000     -37.12590000     -70.49130000
C      -43.90530000     -31.80490000     -72.34300000
H      -43.22800000     -32.31620000     -71.58680000
H      -43.93060000     -30.82660000     -71.80490000
C      -46.56820000     -35.41850000     -70.17800000
H      -47.40580000     -35.63440000     -69.46040000
H      -46.95950000     -35.02410000     -71.11890000
C      -45.47020000     -34.50550000     -69.58330000
H      -45.08100000     -34.93240000     -68.61660000
H      -44.66830000     -34.39920000     -70.30540000
C      -45.39170000     -32.32650000     -72.45840000
H      -45.45960000     -33.40200000     -72.34830000
H      -45.75950000     -31.91680000     -73.36940000
C      -46.32050000     -31.69300000     -71.38680000
C      -46.96290000     -30.49800000     -71.67010000
C      -46.45100000     -32.06420000     -69.99000000
H      -47.08460000     -30.05160000     -72.63620000
C      -47.05910000     -31.06710000     -69.20830000
C      -46.13950000     -33.18910000     -69.17040000
C      -46.42590000     -33.09470000     -67.83830000
S      -47.50810000     -29.68180000     -70.12850000
S      -47.30800000     -31.53940000     -67.53070000
H      -46.08810000     -33.82720000     -67.02650000
