40
Properties=species:S:1:pos:R:3 #=T CELL(abcABC):=T 1.889726e+02=T 90.00000=T Traj:=T positionsangstrom=T Step:=T 0=T Bead:=T pbc="F F F"
C      -43.46060000     -31.70020000     -73.62140000
C      -42.71630000     -32.14950000     -72.51880000
C      -42.80000000     -31.42110000     -71.31190000
C      -43.76170000     -30.37590000     -71.24200000
C      -44.50610000     -29.98680000     -72.36320000
C      -44.37330000     -30.59100000     -73.56790000
H      -43.28870000     -32.15580000     -74.60070000
H      -42.17650000     -31.70960000     -70.47880000
H      -45.22500000     -29.22080000     -72.18110000
H      -44.78080000     -30.30520000     -74.52350000
C      -43.93030000     -29.59500000     -69.98030000
H      -44.53450000     -28.76480000     -70.11400000
H      -42.98450000     -29.31090000     -69.44200000
C      -41.56290000     -33.13850000     -72.74310000
H      -41.35480000     -33.39160000     -73.76760000
H      -40.68370000     -32.83820000     -72.26020000
S      -44.64360000     -30.61860000     -68.63140000
S      -41.85300000     -34.59190000     -71.65830000
C      -46.17840000     -31.45570000     -69.21590000
H      -46.67000000     -31.63720000     -68.26500000
H      -46.84460000     -30.65790000     -69.56560000
C      -43.55050000     -35.14160000     -72.20930000
H      -43.49040000     -35.81730000     -73.06520000
H      -44.11630000     -34.31210000     -72.57010000
C      -44.34570000     -35.71760000     -71.01730000
H      -43.82360000     -36.60190000     -70.65420000
H      -44.26990000     -35.00940000     -70.23100000
C      -45.93290000     -32.83970000     -69.84410000
H      -45.40550000     -33.40670000     -69.06160000
H      -45.30520000     -32.74630000     -70.74470000
C      -47.10940000     -33.65790000     -70.36740000
C      -48.39610000     -33.20670000     -70.49930000
C      -46.93970000     -34.96660000     -70.91150000
H      -48.71420000     -32.15750000     -70.13930000
C      -48.08960000     -35.40390000     -71.59390000
C      -45.83470000     -35.87990000     -71.24280000
C      -46.20210000     -36.93710000     -72.08480000
S      -49.51730000     -34.34480000     -71.27250000
S      -47.91710000     -36.89560000     -72.50860000
H      -45.46160000     -37.69960000     -72.31700000
