40
Properties=species:S:1:pos:R:3 #=T CELL(abcABC):=T 1.889726e+02=T 90.00000=T Traj:=T positionsangstrom=T Step:=T 0=T Bead:=T pbc="F F F"
C      -42.45920000     -34.60790000     -69.08390000
C      -42.99310000     -33.35250000     -68.87190000
C      -42.82330000     -32.29730000     -69.77910000
C      -42.15890000     -32.53790000     -70.96740000
C      -41.71480000     -33.85360000     -71.32690000
C      -41.80930000     -34.84900000     -70.35950000
H      -42.71400000     -35.40490000     -68.47400000
H      -43.20480000     -31.32740000     -69.70690000
H      -41.26100000     -34.04710000     -72.30760000
H      -41.43930000     -35.87340000     -70.43320000
C      -41.94340000     -31.36620000     -71.85000000
H      -40.97760000     -30.88560000     -71.74810000
H      -42.53950000     -30.46340000     -71.57580000
C      -43.74470000     -33.04590000     -67.59110000
H      -43.15440000     -33.26280000     -66.74340000
H      -43.81340000     -31.94960000     -67.58910000
S      -42.32430000     -31.63560000     -73.67640000
S      -45.37170000     -33.93350000     -67.46060000
C      -44.18020000     -31.64950000     -73.55200000
H      -44.57840000     -30.68450000     -73.22100000
H      -44.54010000     -31.75650000     -74.61140000
C      -45.97140000     -33.70190000     -69.15030000
H      -45.44180000     -32.92290000     -69.55040000
H      -47.03450000     -33.30580000     -69.11900000
C      -45.93920000     -34.93480000     -70.08020000
H      -44.92510000     -35.06300000     -70.56040000
H      -46.08140000     -35.92480000     -69.53730000
C      -44.81920000     -32.72240000     -72.62490000
H      -44.60500000     -32.51320000     -71.53930000
H      -44.42780000     -33.66150000     -72.96670000
C      -46.32380000     -32.79790000     -72.82290000
C      -47.06130000     -32.04610000     -73.66970000
C      -47.16060000     -33.86840000     -72.16080000
H      -46.69740000     -31.28590000     -74.36130000
C      -48.43800000     -33.81350000     -72.72740000
C      -47.01520000     -34.91390000     -71.15620000
C      -48.17190000     -35.70380000     -71.13250000
S      -48.74180000     -32.55260000     -73.90470000
S      -49.45680000     -35.08560000     -72.11030000
H      -48.36360000     -36.48970000     -70.42380000
