40
Properties=species:S:1:pos:R:3 #=T CELL(abcABC):=T 1.889726e+02=T 90.00000=T Traj:=T positionsangstrom=T Step:=T 0=T Bead:=T pbc="F F F"
C      -43.57270000     -32.21910000     -73.71230000
C      -42.63940000     -32.26060000     -72.62330000
C      -42.86000000     -31.41810000     -71.48090000
C      -43.87860000     -30.49920000     -71.40600000
C      -44.83370000     -30.47330000     -72.45190000
C      -44.70320000     -31.38170000     -73.56230000
H      -43.39950000     -32.79780000     -74.57960000
H      -42.11910000     -31.52410000     -70.68670000
H      -45.74100000     -29.83630000     -72.37770000
H      -45.51470000     -31.41870000     -74.30860000
C      -44.02130000     -29.56820000     -70.19360000
H      -44.66320000     -28.66620000     -70.47140000
H      -43.08870000     -29.12250000     -69.96140000
C      -41.43110000     -33.19920000     -72.64320000
H      -41.21610000     -33.55790000     -73.59190000
H      -40.55250000     -32.67080000     -72.27720000
S      -44.76110000     -30.38190000     -68.70140000
S      -41.69260000     -34.76610000     -71.62290000
C      -46.15270000     -31.34210000     -69.32900000
H      -46.88470000     -31.29240000     -68.43900000
H      -46.61750000     -30.85890000     -70.16960000
C      -43.30050000     -35.31800000     -72.31530000
H      -43.23780000     -36.08780000     -73.03620000
H      -43.72910000     -34.52500000     -72.91080000
C      -44.29520000     -35.58240000     -71.12240000
H      -44.00890000     -36.54280000     -70.64100000
H      -44.13870000     -34.78690000     -70.35420000
C      -45.85300000     -32.81410000     -69.66030000
H      -45.64690000     -33.40370000     -68.76950000
H      -44.93590000     -32.97260000     -70.25130000
C      -47.02820000     -33.48980000     -70.30440000
C      -48.31140000     -33.17300000     -70.14100000
C      -46.81870000     -34.66790000     -71.15900000
H      -48.66500000     -32.38540000     -69.48260000
C      -48.05400000     -35.16880000     -71.50130000
C      -45.78300000     -35.61210000     -71.39650000
C      -46.32870000     -36.78120000     -71.98180000
S      -49.39090000     -34.24010000     -71.07200000
S      -47.99950000     -36.68930000     -72.41200000
H      -45.64700000     -37.59560000     -72.28250000
