40
Properties=species:S:1:pos:R:3 #=T CELL(abcABC):=T 1.889726e+02=T 90.00000=T Traj:=T positionsangstrom=T Step:=T 0=T Bead:=T pbc="F F F"
C      -44.79850000     -36.66820000     -73.37090000
C      -43.81190000     -36.17400000     -72.46690000
C      -43.15750000     -35.01310000     -72.95460000
C      -43.49050000     -34.32240000     -74.09980000
C      -44.40860000     -34.93600000     -74.99610000
C      -45.01550000     -36.09520000     -74.61590000
H      -45.36070000     -37.51220000     -73.13070000
H      -42.41080000     -34.48200000     -72.45220000
H      -44.62340000     -34.34580000     -75.90410000
H      -45.84880000     -36.51830000     -75.22130000
C      -42.75340000     -33.06620000     -74.38420000
H      -42.19710000     -33.08570000     -75.36590000
H      -41.95930000     -32.91940000     -73.59860000
C      -43.46790000     -36.82050000     -71.14870000
H      -42.88150000     -37.73680000     -71.34500000
H      -42.83510000     -36.11780000     -70.54230000
S      -43.82610000     -31.61070000     -74.53810000
S      -44.98910000     -37.37190000     -70.21210000
C      -44.43890000     -31.37840000     -72.78220000
H      -43.85120000     -31.91440000     -72.01310000
H      -44.39190000     -30.32550000     -72.58300000
C      -45.84100000     -35.68180000     -69.57890000
H      -45.86710000     -35.70770000     -68.46550000
H      -46.87880000     -35.66400000     -69.92680000
C      -45.12810000     -34.39960000     -70.03740000
H      -44.07400000     -34.40780000     -69.85590000
H      -45.29360000     -34.27280000     -71.10130000
C      -45.98220000     -31.93650000     -72.61730000
H      -45.91130000     -32.99230000     -72.69710000
H      -46.58710000     -31.64640000     -73.48370000
C      -46.55180000     -31.44060000     -71.24620000
C      -47.29730000     -30.30640000     -71.22270000
C      -46.31200000     -31.99850000     -69.94040000
H      -47.59270000     -29.49320000     -71.92600000
C      -46.89480000     -31.18340000     -68.93770000
C      -45.72610000     -33.14630000     -69.36410000
C      -45.83140000     -33.11530000     -67.94860000
S      -47.76670000     -29.87040000     -69.60710000
S      -46.74470000     -31.74210000     -67.29290000
H      -45.29060000     -33.81580000     -67.29990000
