40
Properties=species:S:1:pos:R:3 #=T CELL(abcABC):=T 1.889726e+02=T 90.00000=T Traj:=T positionsangstrom=T Step:=T 0=T Bead:=T pbc="F F F"
C      -44.94910000     -36.61710000     -73.34670000
C      -43.85750000     -36.31110000     -72.53640000
C      -43.21130000     -35.08150000     -72.68450000
C      -43.45050000     -34.33630000     -73.85730000
C      -44.41590000     -34.74900000     -74.71940000
C      -45.17890000     -35.91000000     -74.50100000
H      -45.62790000     -37.46050000     -73.14090000
H      -42.48530000     -34.75560000     -71.89120000
H      -44.79370000     -34.11110000     -75.56820000
H      -46.00390000     -36.04870000     -75.19750000
C      -42.67790000     -33.12040000     -74.18200000
H      -42.08730000     -33.28170000     -75.12800000
H      -41.90190000     -32.86130000     -73.41600000
C      -43.59320000     -37.11910000     -71.29250000
H      -43.40770000     -38.20970000     -71.56050000
H      -42.65730000     -36.74260000     -70.74570000
S      -43.71060000     -31.56680000     -74.32020000
S      -44.91950000     -37.10210000     -70.02800000
C      -44.38440000     -31.56950000     -72.62320000
H      -43.74000000     -32.15000000     -71.94950000
H      -44.41920000     -30.55960000     -72.19580000
C      -45.84680000     -35.52340000     -70.42790000
H      -46.76360000     -35.47900000     -69.95870000
H      -45.92370000     -35.42500000     -71.49060000
C      -44.97240000     -34.35380000     -69.92730000
H      -44.27170000     -34.66240000     -69.15890000
H      -44.42400000     -34.01660000     -70.81660000
C      -45.82280000     -32.09230000     -72.60130000
H      -45.69860000     -33.20650000     -72.73070000
H      -46.32600000     -31.73850000     -73.45840000
C      -46.54380000     -31.57860000     -71.34310000
C      -47.22540000     -30.42390000     -71.44020000
C      -46.37670000     -32.10070000     -69.99500000
H      -47.46670000     -29.83440000     -72.26480000
C      -47.01190000     -31.27080000     -69.10210000
C      -45.77120000     -33.21930000     -69.35120000
C      -45.88550000     -33.09460000     -67.95230000
S      -47.78740000     -29.86350000     -69.82150000
S      -46.81780000     -31.72680000     -67.38840000
H      -45.56680000     -33.69770000     -67.12840000
