40
Properties=species:S:1:pos:R:3 #=T CELL(abcABC):=T 1.889726e+02=T 90.00000=T Traj:=T positionsangstrom=T Step:=T 0=T Bead:=T pbc="F F F"
C      -43.25510000     -30.99520000     -73.58100000
C      -42.56900000     -31.60620000     -72.51540000
C      -42.76790000     -31.17460000     -71.21370000
C      -43.67910000     -30.16990000     -70.94870000
C      -44.39110000     -29.55600000     -72.00240000
C      -44.18000000     -29.97560000     -73.30990000
H      -43.00970000     -31.32950000     -74.54470000
H      -42.47940000     -31.79350000     -70.36640000
H      -45.01300000     -28.73710000     -71.70470000
H      -44.65780000     -29.38770000     -74.07370000
C      -44.05290000     -29.72070000     -69.56530000
H      -44.90790000     -28.98610000     -69.65740000
H      -43.25100000     -29.25640000     -69.01120000
C      -41.63610000     -32.84000000     -72.71130000
H      -41.47250000     -33.12050000     -73.72750000
H      -40.66400000     -32.55530000     -72.33860000
S      -44.68660000     -31.07540000     -68.42760000
S      -42.11110000     -34.41550000     -71.76300000
C      -46.06840000     -31.79560000     -69.39940000
H      -46.68020000     -32.24950000     -68.64580000
H      -46.64500000     -30.87730000     -69.73010000
C      -43.68790000     -34.98210000     -72.44950000
H      -43.56810000     -35.44200000     -73.48500000
H      -44.34060000     -34.18180000     -72.68720000
C      -44.32830000     -35.83660000     -71.29710000
H      -43.82280000     -36.75370000     -71.29690000
H      -44.10190000     -35.46440000     -70.24970000
C      -45.75020000     -32.78230000     -70.51670000
H      -44.90350000     -33.45630000     -70.22760000
H      -45.35390000     -32.18230000     -71.31540000
C      -46.95050000     -33.59940000     -70.93670000
C      -48.24720000     -33.20130000     -70.88550000
C      -46.86950000     -35.10190000     -71.27720000
H      -48.59430000     -32.30820000     -70.55610000
C      -48.14660000     -35.63820000     -71.50440000
C      -45.80600000     -36.06870000     -71.51840000
C      -46.30660000     -37.25530000     -71.98280000
S      -49.44200000     -34.43770000     -71.37790000
S      -48.05980000     -37.26650000     -71.96910000
H      -45.82880000     -38.21160000     -72.07090000
