40
Properties=species:S:1:pos:R:3 #=T CELL(abcABC):=T 1.889726e+02=T 90.00000=T Traj:=T positionsangstrom=T Step:=T 0=T Bead:=T pbc="F F F"
C      -43.09160000     -30.67860000     -73.52700000
C      -42.50670000     -31.48030000     -72.51110000
C      -42.87210000     -31.20750000     -71.19340000
C      -43.68010000     -30.15580000     -70.83610000
C      -44.10190000     -29.25720000     -71.83040000
C      -43.88290000     -29.57700000     -73.16590000
H      -42.97600000     -30.71080000     -74.68800000
H      -42.45540000     -31.91610000     -70.45420000
H      -44.67980000     -28.39860000     -71.47810000
H      -44.31460000     -28.96980000     -73.97620000
C      -44.05300000     -29.88980000     -69.41170000
H      -44.93200000     -29.15770000     -69.31960000
H      -43.19690000     -29.61710000     -68.79160000
C      -41.68810000     -32.66150000     -72.79410000
H      -41.74970000     -32.93310000     -73.92370000
H      -40.61360000     -32.57110000     -72.63480000
S      -44.69860000     -31.29720000     -68.32780000
S      -42.15730000     -34.26200000     -71.84150000
C      -46.15550000     -31.91120000     -69.27210000
H      -46.91440000     -32.19860000     -68.57140000
H      -46.51660000     -30.92110000     -69.75960000
C      -43.79960000     -34.79800000     -72.37630000
H      -43.73140000     -35.33130000     -73.33710000
H      -44.46200000     -33.94640000     -72.56380000
C      -44.32490000     -35.73220000     -71.28780000
H      -43.72870000     -36.66540000     -71.30110000
H      -44.19100000     -35.29420000     -70.28070000
C      -45.84810000     -32.99000000     -70.31220000
H      -45.09150000     -33.63740000     -69.85870000
H      -45.40410000     -32.45160000     -71.10360000
C      -47.06440000     -33.77910000     -70.86840000
C      -48.38790000     -33.35080000     -70.75950000
C      -46.96930000     -35.12390000     -71.33610000
H      -48.80560000     -32.39540000     -70.26180000
C      -48.17350000     -35.66400000     -71.79440000
C      -45.76720000     -36.05680000     -71.52820000
C      -46.21140000     -37.24200000     -72.00210000
S      -49.52730000     -34.58000000     -71.37170000
S      -47.95840000     -37.36760000     -72.33800000
H      -45.55170000     -38.12200000     -72.15630000
