40
Properties=species:S:1:pos:R:3 #=T CELL(abcABC):=T 1.889726e+02=T 90.00000=T Traj:=T positionsangstrom=T Step:=T 0=T Bead:=T pbc="F F F"
C      -43.09660000     -30.72920000     -73.48670000
C      -42.56400000     -31.52930000     -72.48850000
C      -42.84300000     -31.22230000     -71.17310000
C      -43.71410000     -30.18300000     -70.86020000
C      -44.29280000     -29.39160000     -71.88970000
C      -43.95660000     -29.62810000     -73.24180000
H      -42.93740000     -30.91030000     -74.57680000
H      -42.58050000     -31.93850000     -70.37690000
H      -44.98400000     -28.58220000     -71.62610000
H      -44.42090000     -29.16660000     -74.10660000
C      -43.99730000     -29.77800000     -69.41190000
H      -44.57150000     -28.87320000     -69.36170000
H      -43.09370000     -29.51500000     -68.90190000
C      -41.77460000     -32.76090000     -72.80930000
H      -42.03800000     -32.94510000     -73.79560000
H      -40.73930000     -32.52640000     -72.65290000
S      -44.61200000     -31.24770000     -68.55820000
S      -42.01780000     -34.20070000     -71.73330000
C      -46.16640000     -31.75190000     -69.48030000
H      -46.81230000     -32.18880000     -68.67540000
H      -46.57220000     -30.85130000     -69.92430000
C      -43.65200000     -34.77900000     -72.34370000
H      -43.49830000     -35.15210000     -73.34540000
H      -44.28040000     -33.86570000     -72.37480000
C      -44.30370000     -35.82520000     -71.38050000
H      -43.72400000     -36.77410000     -71.55440000
H      -44.18340000     -35.60750000     -70.37400000
C      -45.91810000     -32.88560000     -70.46310000
H      -45.10030000     -33.51580000     -70.05510000
H      -45.36810000     -32.64980000     -71.39120000
C      -47.04930000     -33.82500000     -70.81340000
C      -48.37150000     -33.37890000     -70.82240000
C      -46.91690000     -35.17290000     -71.26720000
H      -48.70080000     -32.40040000     -70.42080000
C      -48.18910000     -35.77630000     -71.39600000
C      -45.80520000     -36.06010000     -71.61090000
C      -46.31800000     -37.18140000     -72.22650000
S      -49.50700000     -34.56940000     -71.34680000
S      -48.07070000     -37.36740000     -72.05210000
H      -45.79810000     -38.03560000     -72.67520000
