40
Properties=species:S:1:pos:R:3 #=T CELL(abcABC):=T 1.889726e+02=T 90.00000=T Traj:=T positionsangstrom=T Step:=T 0=T Bead:=T pbc="F F F"
C      -43.62430000     -31.00890000     -72.77470000
C      -42.83280000     -31.39020000     -71.71000000
C      -43.21850000     -31.04400000     -70.38860000
C      -44.42300000     -30.37480000     -70.14020000
C      -45.21820000     -30.01570000     -71.27050000
C      -44.84310000     -30.34950000     -72.57850000
H      -43.40160000     -31.40310000     -73.76880000
H      -42.60810000     -31.36030000     -69.58800000
H      -46.25340000     -29.73400000     -70.99290000
H      -45.54100000     -30.05580000     -73.34910000
C      -44.90900000     -30.23580000     -68.72790000
H      -45.97280000     -29.86320000     -68.79740000
H      -44.31820000     -29.54440000     -68.14160000
C      -41.55130000     -32.14460000     -71.94870000
H      -41.15540000     -31.95740000     -72.96160000
H      -40.85340000     -31.80030000     -71.17510000
S      -44.88890000     -31.80210000     -67.74850000
S      -41.77120000     -34.00350000     -71.86310000
C      -46.18180000     -32.74900000     -68.64050000
H      -46.67980000     -33.36230000     -67.88370000
H      -46.92760000     -31.94410000     -68.82310000
C      -43.50470000     -34.26600000     -72.37920000
H      -43.58600000     -34.13420000     -73.45630000
H      -44.17360000     -33.46770000     -72.04120000
C      -44.01610000     -35.60700000     -71.87380000
H      -43.54820000     -36.48200000     -72.32090000
H      -43.68790000     -35.77790000     -70.85510000
C      -45.68160000     -33.44180000     -69.90490000
H      -44.80740000     -34.08670000     -69.76880000
H      -45.22270000     -32.62020000     -70.50080000
C      -46.82860000     -34.04750000     -70.75630000
C      -48.12830000     -33.57870000     -70.80210000
C      -46.67900000     -35.08090000     -71.74370000
H      -48.42480000     -32.61100000     -70.40880000
C      -47.84870000     -35.40120000     -72.47270000
C      -45.47070000     -35.73920000     -72.28630000
C      -45.86250000     -36.58260000     -73.33260000
S      -49.21380000     -34.49620000     -71.90510000
S      -47.53470000     -36.57340000     -73.69920000
H      -45.10030000     -37.23330000     -73.74480000
