40
Properties=species:S:1:pos:R:3 #=T CELL(abcABC):=T 1.889726e+02=T 90.00000=T Traj:=T positionsangstrom=T Step:=T 0=T Bead:=T pbc="F F F"
C      -43.37650000     -31.03060000     -72.99320000
C      -42.66910000     -31.55420000     -71.93220000
C      -43.01350000     -31.23850000     -70.61670000
C      -44.25190000     -30.51590000     -70.39360000
C      -44.95330000     -29.95140000     -71.42400000
C      -44.51740000     -30.27540000     -72.76140000
H      -43.08850000     -31.27660000     -74.00020000
H      -42.39860000     -31.53610000     -69.77500000
H      -45.88820000     -29.43620000     -71.17460000
H      -45.19930000     -29.96690000     -73.57980000
C      -44.62080000     -30.11720000     -68.95430000
H      -45.53170000     -29.49180000     -68.97800000
H      -43.76700000     -29.60790000     -68.53430000
C      -41.39410000     -32.34090000     -72.25160000
H      -41.30330000     -32.34380000     -73.31340000
H      -40.52190000     -32.02600000     -71.72560000
S      -45.04120000     -31.52110000     -67.84900000
S      -41.77950000     -34.13280000     -71.79230000
C      -46.27770000     -32.45990000     -68.69200000
H      -46.96360000     -32.90150000     -67.93490000
H      -46.96700000     -31.79910000     -69.28620000
C      -43.32540000     -34.59490000     -72.61180000
H      -43.10930000     -34.96920000     -73.59140000
H      -44.00670000     -33.74660000     -72.72210000
C      -44.07490000     -35.59230000     -71.73030000
H      -43.67890000     -36.58620000     -71.99240000
H      -43.95720000     -35.40320000     -70.62120000
C      -45.82110000     -33.53130000     -69.67210000
H      -45.42760000     -34.33100000     -69.09850000
H      -45.05560000     -33.10520000     -70.29970000
C      -46.92200000     -33.93240000     -70.57180000
C      -48.20910000     -33.53860000     -70.58070000
C      -46.76650000     -35.00900000     -71.64010000
H      -48.67900000     -32.86210000     -69.91880000
C      -47.95900000     -35.40150000     -72.23330000
C      -45.63040000     -35.72130000     -72.16630000
C      -46.01790000     -36.66030000     -73.06320000
S      -49.30740000     -34.38440000     -71.79930000
S      -47.70680000     -36.64730000     -73.51540000
H      -45.33010000     -37.21480000     -73.65840000
