40
Properties=species:S:1:pos:R:3 #=T CELL(abcABC):=T 1.889726e+02=T 90.00000=T Traj:=T positionsangstrom=T Step:=T 0=T Bead:=T pbc="F F F"
C      -43.56380000     -31.08330000     -73.18170000
C      -42.67490000     -31.61160000     -72.23030000
C      -42.92550000     -31.41300000     -70.84320000
C      -43.97620000     -30.57070000     -70.42260000
C      -44.79500000     -29.92950000     -71.40160000
C      -44.61070000     -30.26210000     -72.75360000
H      -43.49810000     -31.39370000     -74.24280000
H      -42.27210000     -31.70200000     -70.02600000
H      -45.57990000     -29.24140000     -71.09870000
H      -45.30690000     -29.79710000     -73.42260000
C      -44.15150000     -30.00860000     -69.05000000
H      -44.71440000     -29.00110000     -68.98710000
H      -43.17330000     -29.90250000     -68.54710000
C      -41.58750000     -32.56380000     -72.71230000
H      -41.50700000     -32.61860000     -73.80700000
H      -40.59670000     -32.20400000     -72.40070000
S      -44.97910000     -31.32620000     -68.02830000
S      -41.71580000     -34.26470000     -71.85470000
C      -46.28610000     -31.97930000     -69.14290000
H      -47.30880000     -31.92230000     -68.65330000
H      -46.51000000     -31.39180000     -70.05500000
C      -43.53770000     -34.64310000     -72.29370000
H      -43.57110000     -35.07230000     -73.27020000
H      -44.05750000     -33.69370000     -72.22050000
C      -44.26620000     -35.65670000     -71.44740000
H      -43.70300000     -36.65010000     -71.42540000
H      -44.36670000     -35.28840000     -70.44160000
C      -45.92240000     -33.46990000     -69.64350000
H      -45.58740000     -33.99900000     -68.76050000
H      -45.05370000     -33.31850000     -70.23810000
C      -47.00510000     -34.06780000     -70.38680000
C      -48.38750000     -33.71520000     -70.32450000
C      -46.78250000     -34.90900000     -71.49760000
H      -48.85990000     -33.30510000     -69.50150000
C      -47.94120000     -35.31440000     -72.16690000
C      -45.69480000     -35.77010000     -71.94740000
C      -45.99630000     -36.60330000     -73.03420000
S      -49.34390000     -34.62620000     -71.50420000
S      -47.67430000     -36.45020000     -73.48690000
H      -45.44960000     -37.42610000     -73.42570000
