40
Properties=species:S:1:pos:R:3 #=T CELL(abcABC):=T 1.889726e+02=T 90.00000=T Traj:=T positionsangstrom=T Step:=T 0=T Bead:=T pbc="F F F"
C      -42.55670000     -34.71950000     -69.50950000
C      -42.87510000     -33.47830000     -68.96100000
C      -42.57770000     -32.34240000     -69.70170000
C      -41.99170000     -32.44330000     -70.94190000
C      -41.57990000     -33.66740000     -71.52810000
C      -41.93660000     -34.78830000     -70.76900000
H      -42.76360000     -35.61840000     -68.84530000
H      -42.81690000     -31.38080000     -69.21760000
H      -41.23460000     -33.66760000     -72.55330000
H      -41.66050000     -35.69300000     -71.28640000
C      -41.90050000     -31.16510000     -71.73930000
H      -40.80340000     -30.83130000     -71.80700000
H      -42.50420000     -30.39900000     -71.23330000
C      -43.50760000     -33.20940000     -67.59100000
H      -43.00280000     -33.85120000     -66.82440000
H      -43.51330000     -32.18070000     -67.31400000
S      -42.46960000     -31.53310000     -73.52390000
S      -45.29130000     -33.81550000     -67.42690000
C      -44.37240000     -31.38410000     -73.50340000
H      -44.61200000     -30.32800000     -73.25580000
H      -44.62190000     -31.41520000     -74.55060000
C      -45.91910000     -33.51670000     -69.10060000
H      -45.27840000     -32.73750000     -69.66080000
H      -46.90960000     -33.16700000     -68.96210000
C      -45.85730000     -34.76670000     -70.05290000
H      -44.86120000     -34.94850000     -70.41610000
H      -45.96950000     -35.71460000     -69.53870000
C      -45.02830000     -32.28720000     -72.54520000
H      -45.00030000     -31.82370000     -71.52250000
H      -44.44200000     -33.25190000     -72.40900000
C      -46.51090000     -32.77090000     -72.87730000
C      -47.28730000     -32.13580000     -73.76750000
C      -47.17610000     -33.90670000     -72.26500000
H      -46.99900000     -31.18480000     -74.19100000
C      -48.46930000     -34.10490000     -72.81110000
C      -46.97190000     -34.76420000     -71.10550000
C      -47.99710000     -35.64510000     -70.90620000
S      -48.88430000     -32.90180000     -73.96620000
S      -49.35360000     -35.38810000     -71.97100000
H      -48.01350000     -36.42450000     -70.11650000
