40
Properties=species:S:1:pos:R:3 #=T CELL(abcABC):=T 1.889726e+02=T 90.00000=T Traj:=T positionsangstrom=T Step:=T 0=T Bead:=T pbc="F F F"
C      -44.29740000     -29.53050000     -71.44660000
C      -43.45130000     -30.60030000     -71.13450000
C      -43.53960000     -31.24160000     -69.86640000
C      -44.48490000     -30.79310000     -68.92280000
C      -45.22970000     -29.61060000     -69.21060000
C      -45.14920000     -28.99090000     -70.45030000
H      -44.05750000     -28.87440000     -72.27580000
H      -42.78030000     -31.94190000     -69.60810000
H      -45.84900000     -29.22000000     -68.39160000
H      -45.82820000     -28.19990000     -70.81140000
C      -44.68420000     -31.39380000     -67.51640000
H      -45.52420000     -30.90270000     -66.99740000
H      -43.80260000     -31.25520000     -66.86280000
C      -42.35570000     -30.98640000     -72.19980000
H      -42.55380000     -30.43580000     -73.11410000
H      -41.35910000     -30.48420000     -72.01370000
S      -44.78990000     -33.24440000     -67.64640000
S      -42.03710000     -32.70370000     -72.54360000
C      -46.28210000     -33.65840000     -68.73300000
H      -46.80230000     -34.48770000     -68.25030000
H      -46.99020000     -32.77550000     -68.78960000
C      -43.75540000     -33.34490000     -73.07430000
H      -43.78810000     -33.36910000     -74.15790000
H      -44.36180000     -32.64160000     -72.51790000
C      -43.89970000     -34.90370000     -72.63230000
H      -43.05380000     -35.42830000     -73.00610000
H      -43.94530000     -34.94570000     -71.54220000
C      -45.63220000     -34.17440000     -70.05470000
H      -45.08850000     -35.12700000     -69.94680000
H      -44.91970000     -33.39700000     -70.33620000
C      -46.69340000     -34.53540000     -71.11440000
C      -48.07500000     -34.53980000     -70.87260000
C      -46.37870000     -35.18570000     -72.36350000
H      -48.54950000     -34.10920000     -70.04330000
C      -47.51440000     -35.71230000     -72.99820000
C      -45.16190000     -35.52900000     -73.07020000
C      -45.34570000     -36.27120000     -74.16780000
S      -49.00630000     -35.20730000     -72.20930000
S      -47.11090000     -36.59260000     -74.43720000
H      -44.57710000     -36.56920000     -74.86160000
