40
Properties=species:S:1:pos:R:3 #=T CELL(abcABC):=T 1.889726e+02=T 90.00000=T Traj:=T positionsangstrom=T Step:=T 0=T Bead:=T pbc="F F F"
C      -44.22510000     -30.30310000     -72.24120000
C      -43.11570000     -30.82490000     -71.54930000
C      -43.30970000     -30.95010000     -70.12980000
C      -44.49610000     -30.63860000     -69.47040000
C      -45.54100000     -30.08950000     -70.21630000
C      -45.36290000     -29.93230000     -71.60810000
H      -44.12170000     -30.13610000     -73.32680000
H      -42.50960000     -31.30670000     -69.51990000
H      -46.29880000     -29.61960000     -69.72200000
H      -46.22930000     -29.40980000     -72.11060000
C      -44.62920000     -30.83980000     -67.98170000
H      -45.49150000     -30.30550000     -67.72090000
H      -43.82110000     -30.50360000     -67.40870000
C      -41.82100000     -31.31940000     -72.08690000
H      -41.57340000     -30.89030000     -73.01690000
H      -41.14880000     -31.15580000     -71.24890000
S      -44.86860000     -32.60630000     -67.51740000
S      -41.89570000     -33.30950000     -72.02210000
C      -46.24830000     -33.07360000     -68.68710000
H      -46.87640000     -33.71820000     -68.09600000
H      -46.79660000     -32.11980000     -68.97590000
C      -43.34060000     -33.82740000     -72.97760000
H      -43.12880000     -33.95700000     -74.09270000
H      -44.14950000     -33.10010000     -72.95770000
C      -43.85260000     -35.20200000     -72.41780000
H      -43.19220000     -36.01160000     -72.78040000
H      -43.65080000     -35.12230000     -71.30790000
C      -45.70020000     -33.72780000     -70.01830000
H      -44.88830000     -34.46780000     -69.79580000
H      -45.21420000     -32.91910000     -70.56450000
C      -46.73130000     -34.29270000     -71.00040000
C      -48.05620000     -34.17050000     -70.78920000
C      -46.45470000     -35.07070000     -72.16870000
H      -48.55930000     -33.64180000     -69.95530000
C      -47.63260000     -35.49590000     -72.83570000
C      -45.28290000     -35.59660000     -72.80550000
C      -45.55550000     -36.46970000     -73.85050000
S      -49.10520000     -34.88060000     -71.99100000
S      -47.32840000     -36.60340000     -74.06570000
H      -44.95610000     -37.04740000     -74.56040000
