40
Properties=species:S:1:pos:R:3 #=T CELL(abcABC):=T 1.889726e+02=T 90.00000=T Traj:=T positionsangstrom=T Step:=T 0=T Bead:=T pbc="F F F"
C      -43.90040000     -37.48570000     -73.81610000
C      -44.18670000     -36.60770000     -72.72410000
C      -43.93760000     -35.24520000     -72.91110000
C      -43.22960000     -34.75280000     -74.04120000
C      -42.99590000     -35.66700000     -75.13500000
C      -43.33590000     -37.08710000     -75.01100000
H      -44.10480000     -38.51220000     -73.76350000
H      -43.99830000     -34.59740000     -72.02260000
H      -42.54330000     -35.18090000     -75.97250000
H      -43.14080000     -37.75610000     -75.84110000
C      -43.04800000     -33.31580000     -74.32000000
H      -42.46140000     -33.12670000     -75.20230000
H      -42.36530000     -32.85290000     -73.50910000
C      -44.88280000     -37.14050000     -71.47740000
H      -44.95560000     -38.25800000     -71.56030000
H      -44.40550000     -36.76540000     -70.53770000
S      -44.53520000     -32.23410000     -74.37060000
S      -46.68520000     -36.72040000     -71.48960000
C      -44.50940000     -31.69750000     -72.63420000
H      -44.30010000     -32.53050000     -71.96160000
H      -43.73700000     -30.98550000     -72.37010000
C      -46.68110000     -35.41050000     -70.15790000
H      -45.89900000     -35.53660000     -69.43000000
H      -47.57010000     -35.62860000     -69.63270000
C      -46.64520000     -33.92240000     -70.66680000
H      -45.78990000     -33.76310000     -71.32610000
H      -47.55730000     -33.85140000     -71.25510000
C      -45.85240000     -31.06740000     -72.16310000
H      -46.64780000     -31.81570000     -72.29790000
H      -46.11320000     -30.13100000     -72.69360000
C      -45.78460000     -30.74720000     -70.73180000
C      -45.35570000     -29.52200000     -70.30420000
C      -46.16180000     -31.63690000     -69.65360000
H      -44.91040000     -28.79220000     -70.94140000
C      -46.12010000     -30.97850000     -68.41640000
C      -46.56120000     -32.98510000     -69.49420000
C      -46.94850000     -33.27080000     -68.21680000
S      -45.62890000     -29.32750000     -68.59480000
S      -46.64620000     -31.94900000     -67.09570000
H      -47.15900000     -34.23670000     -67.82200000
