40
Properties=species:S:1:pos:R:3 #=T CELL(abcABC):=T 1.889726e+02=T 90.00000=T Traj:=T positionsangstrom=T Step:=T 0=T Bead:=T pbc="F F F"
C      -44.41410000     -29.56050000     -71.34650000
C      -43.46240000     -30.55630000     -70.98860000
C      -43.51500000     -31.16270000     -69.67690000
C      -44.59490000     -30.83690000     -68.81730000
C      -45.48800000     -29.83610000     -69.15400000
C      -45.40840000     -29.20740000     -70.37830000
H      -44.14680000     -29.09730000     -72.35820000
H      -42.73010000     -31.83510000     -69.39830000
H      -46.26430000     -29.50780000     -68.52110000
H      -46.19640000     -28.48840000     -70.60540000
C      -44.64820000     -31.61720000     -67.46970000
H      -45.49730000     -31.28750000     -66.89000000
H      -43.74060000     -31.32060000     -66.94950000
C      -42.32860000     -30.84900000     -71.92510000
H      -42.44820000     -30.39410000     -72.91230000
H      -41.37060000     -30.41220000     -71.65690000
S      -44.66350000     -33.53650000     -67.64380000
S      -42.02820000     -32.69980000     -72.08830000
C      -46.10670000     -33.83090000     -68.74160000
H      -46.35570000     -34.85910000     -68.44570000
H      -47.04910000     -33.30260000     -68.46600000
C      -43.55500000     -33.02160000     -73.07550000
H      -43.36980000     -32.61010000     -74.09270000
H      -44.37550000     -32.55400000     -72.45280000
C      -43.87560000     -34.51950000     -73.10470000
H      -43.24020000     -34.92980000     -73.91280000
H      -43.62170000     -34.99840000     -72.16140000
C      -45.71050000     -33.86660000     -70.16240000
H      -44.75720000     -34.39320000     -69.97200000
H      -45.53980000     -32.84780000     -70.49760000
C      -46.62240000     -34.62060000     -71.15900000
C      -47.91510000     -34.98770000     -70.77480000
C      -46.35820000     -35.00790000     -72.55100000
H      -48.36340000     -34.78880000     -69.75660000
C      -47.47540000     -35.60320000     -73.14510000
C      -45.31480000     -34.93740000     -73.49750000
C      -45.64640000     -35.42120000     -74.73990000
S      -48.74100000     -35.97750000     -71.94320000
S      -47.30960000     -36.14990000     -74.79410000
H      -45.11260000     -35.52850000     -75.67470000
