40
Properties=species:S:1:pos:R:3 #=T CELL(abcABC):=T 1.889726e+02=T 90.00000=T Traj:=T positionsangstrom=T Step:=T 0=T Bead:=T pbc="F F F"
C      -42.20540000     -34.69790000     -69.44200000
C      -42.79190000     -33.51000000     -68.99820000
C      -42.88870000     -32.39440000     -69.76530000
C      -42.40980000     -32.51720000     -71.13780000
C      -41.79250000     -33.71470000     -71.56000000
C      -41.66140000     -34.80230000     -70.70090000
H      -41.99910000     -35.46550000     -68.74100000
H      -43.23450000     -31.40110000     -69.40080000
H      -41.43130000     -33.69360000     -72.60390000
H      -41.16460000     -35.75930000     -70.98570000
C      -42.26690000     -31.22000000     -71.93470000
H      -41.20270000     -31.22720000     -72.01510000
H      -42.77890000     -30.36540000     -71.41420000
C      -43.31910000     -33.37550000     -67.53630000
H      -42.71630000     -33.70500000     -66.75740000
H      -43.35900000     -32.22900000     -67.38440000
S      -42.77630000     -31.29970000     -73.65020000
S      -45.06810000     -34.07440000     -67.32890000
C      -44.58290000     -31.05850000     -73.46340000
H      -44.76950000     -30.06190000     -73.13660000
H      -44.92230000     -31.15090000     -74.53320000
C      -46.00670000     -33.49520000     -68.88520000
H      -45.68900000     -32.48300000     -68.98270000
H      -47.03770000     -33.68140000     -68.42880000
C      -45.76130000     -34.47880000     -70.02420000
H      -44.86400000     -34.28390000     -70.60130000
H      -45.68030000     -35.43840000     -69.54190000
C      -45.15320000     -32.17650000     -72.59890000
H      -44.96310000     -31.86240000     -71.52500000
H      -44.55710000     -33.06430000     -72.52200000
C      -46.59000000     -32.58120000     -72.77130000
C      -47.36640000     -32.13980000     -73.82000000
C      -47.16840000     -33.72020000     -72.14870000
H      -47.16560000     -31.36320000     -74.53110000
C      -48.40790000     -34.10860000     -72.74450000
C      -46.87610000     -34.55060000     -71.01300000
C      -47.85850000     -35.51610000     -70.78650000
S      -48.82210000     -33.17780000     -74.05210000
S      -49.10030000     -35.51020000     -72.00440000
H      -47.80690000     -36.27680000     -70.01550000
