40
Properties=species:S:1:pos:R:3 #=T CELL(abcABC):=T 1.889726e+02=T 90.00000=T Traj:=T positionsangstrom=T Step:=T 0=T Bead:=T pbc="F F F"
C      -45.34990000     -30.10990000     -71.23950000
C      -44.10920000     -30.54180000     -70.82890000
C      -43.99310000     -31.08170000     -69.52170000
C      -45.04150000     -31.31480000     -68.68050000
C      -46.30160000     -30.76720000     -69.07200000
C      -46.39920000     -30.14890000     -70.32260000
H      -45.50420000     -29.77480000     -72.27230000
H      -43.03290000     -31.56810000     -69.31590000
H      -47.15850000     -30.85580000     -68.34720000
H      -47.41270000     -29.85990000     -70.61130000
C      -44.82960000     -32.09090000     -67.38530000
H      -45.75760000     -32.44890000     -66.97230000
H      -44.10600000     -31.65520000     -66.70350000
C      -42.86820000     -30.34470000     -71.77700000
H      -43.11400000     -29.60630000     -72.59560000
H      -42.03840000     -29.85430000     -71.21500000
S      -43.89460000     -33.65900000     -67.78690000
S      -42.32310000     -31.88900000     -72.41940000
C      -45.00470000     -34.91900000     -68.68960000
H      -44.54890000     -35.88040000     -68.56520000
H      -46.00840000     -34.99630000     -68.22580000
C      -43.81850000     -32.34980000     -73.32600000
H      -43.81850000     -31.78810000     -74.28370000
H      -44.67050000     -32.04840000     -72.76540000
C      -43.92190000     -33.89680000     -73.53160000
H      -43.40430000     -34.23780000     -74.42920000
H      -43.45290000     -34.35590000     -72.65320000
C      -44.90380000     -34.57880000     -70.21640000
H      -43.98970000     -34.99400000     -70.59710000
H      -44.86320000     -33.57550000     -70.49790000
C      -46.00310000     -35.09660000     -71.08540000
C      -47.02900000     -35.89420000     -70.57350000
C      -46.16860000     -34.92500000     -72.49560000
H      -47.01690000     -36.39940000     -69.62430000
C      -47.34000000     -35.50700000     -72.97180000
C      -45.38620000     -34.38670000     -73.61950000
C      -45.92480000     -34.44360000     -74.86880000
S      -48.21440000     -36.42270000     -71.76820000
S      -47.54330000     -35.12810000     -74.66140000
H      -45.41070000     -34.29170000     -75.74210000
