40
Properties=species:S:1:pos:R:3 #=T CELL(abcABC):=T 1.889726e+02=T 90.00000=T Traj:=T positionsangstrom=T Step:=T 0=T Bead:=T pbc="F F F"
C      -45.55430000     -29.94080000     -71.03940000
C      -44.24900000     -30.41840000     -70.80300000
C      -44.03790000     -31.10630000     -69.61620000
C      -45.01660000     -31.39480000     -68.63310000
C      -46.32230000     -31.03550000     -68.96630000
C      -46.56290000     -30.30640000     -70.14820000
H      -45.74680000     -29.21940000     -71.85530000
H      -42.98500000     -31.33020000     -69.31000000
H      -47.19150000     -31.32750000     -68.38510000
H      -47.57610000     -29.93630000     -70.35000000
C      -44.82990000     -32.31100000     -67.41680000
H      -45.83150000     -32.48250000     -67.08160000
H      -44.31860000     -31.76010000     -66.56840000
C      -43.04770000     -30.06450000     -71.68960000
H      -43.20430000     -29.47960000     -72.54290000
H      -42.21890000     -29.80560000     -71.01790000
S      -43.77260000     -33.75210000     -67.73330000
S      -42.36080000     -31.69740000     -72.32520000
C      -44.92850000     -34.70360000     -68.86510000
H      -44.87380000     -35.80770000     -68.64750000
H      -45.90750000     -34.42250000     -68.41330000
C      -43.96000000     -32.48930000     -72.97660000
H      -44.39730000     -31.89820000     -73.82230000
H      -44.80850000     -32.33690000     -72.27150000
C      -43.86670000     -33.94220000     -73.46300000
H      -43.29350000     -33.99660000     -74.45450000
H      -43.28490000     -34.56710000     -72.81400000
C      -44.94200000     -34.41930000     -70.40840000
H      -43.91810000     -34.59880000     -70.86610000
H      -45.09340000     -33.34180000     -70.49980000
C      -45.92870000     -35.11380000     -71.20450000
C      -46.92510000     -35.90360000     -70.66990000
C      -46.07640000     -34.97410000     -72.62190000
H      -46.94530000     -36.11440000     -69.62700000
C      -47.27320000     -35.56230000     -73.08090000
C      -45.30370000     -34.48330000     -73.71420000
C      -45.93680000     -34.51370000     -74.93880000
S      -48.18800000     -36.32660000     -71.82690000
S      -47.45620000     -35.26870000     -74.76390000
H      -45.61040000     -34.07640000     -75.86170000
