40
Properties=species:S:1:pos:R:3 #=T CELL(abcABC):=T 1.889726e+02=T 90.00000=T Traj:=T positionsangstrom=T Step:=T 0=T Bead:=T pbc="F F F"
C      -44.48290000     -29.56020000     -71.27260000
C      -43.41950000     -30.38530000     -70.85030000
C      -43.54950000     -31.14510000     -69.63440000
C      -44.66720000     -31.02800000     -68.85190000
C      -45.68160000     -30.11780000     -69.21560000
C      -45.58820000     -29.45790000     -70.44600000
H      -44.53320000     -28.97480000     -72.17580000
H      -42.74130000     -31.81160000     -69.29030000
H      -46.65330000     -30.11880000     -68.68190000
H      -46.38450000     -28.76840000     -70.82540000
C      -44.91790000     -31.85240000     -67.55630000
H      -45.99670000     -31.79450000     -67.26960000
H      -44.47840000     -31.47020000     -66.66800000
C      -42.24350000     -30.68860000     -71.71070000
H      -42.19120000     -30.01890000     -72.57490000
H      -41.30490000     -30.61670000     -71.10300000
S      -44.46030000     -33.62990000     -67.62030000
S      -42.10880000     -32.36100000     -72.46280000
C      -45.75090000     -34.42120000     -68.61050000
H      -45.72730000     -35.49700000     -68.36670000
H      -46.73840000     -34.00460000     -68.35900000
C      -43.74940000     -32.84940000     -73.03880000
H      -43.96120000     -32.24800000     -73.96670000
H      -44.57600000     -32.53550000     -72.33100000
C      -43.90110000     -34.37040000     -73.23370000
H      -43.43190000     -34.62150000     -74.13020000
H      -43.54860000     -35.00220000     -72.40990000
C      -45.37120000     -34.49300000     -70.13440000
H      -44.68960000     -35.33530000     -70.19280000
H      -44.82630000     -33.55530000     -70.44160000
C      -46.48780000     -34.86950000     -71.08380000
C      -47.66370000     -35.31570000     -70.58490000
C      -46.37380000     -35.02140000     -72.52100000
H      -48.02210000     -35.19770000     -69.58700000
C      -47.49470000     -35.61400000     -73.07260000
C      -45.30770000     -34.83000000     -73.48420000
C      -45.74920000     -35.11830000     -74.75410000
S      -48.70790000     -35.91550000     -71.85940000
S      -47.45590000     -35.71090000     -74.79340000
H      -45.15350000     -35.12580000     -75.63930000
