40
Properties=species:S:1:pos:R:3 #=T CELL(abcABC):=T 1.889726e+02=T 90.00000=T Traj:=T positionsangstrom=T Step:=T 0=T Bead:=T pbc="F F F"
C      -44.79480000     -37.08310000     -74.00590000
C      -44.40250000     -36.68020000     -72.71300000
C      -43.41390000     -35.72600000     -72.48980000
C      -42.76150000     -35.08130000     -73.57220000
C      -43.13920000     -35.49940000     -74.86000000
C      -44.02500000     -36.53090000     -75.10720000
H      -45.57850000     -37.86630000     -74.19840000
H      -43.23000000     -35.47130000     -71.44540000
H      -42.60830000     -34.98100000     -75.69320000
H      -44.19510000     -36.86500000     -76.10880000
C      -41.77740000     -33.93730000     -73.36390000
H      -40.97920000     -33.90670000     -74.08760000
H      -41.25080000     -34.07300000     -72.40910000
C      -45.19820000     -37.39150000     -71.67550000
H      -45.31950000     -38.38810000     -71.98260000
H      -44.78520000     -37.35180000     -70.67760000
S      -42.59290000     -32.22290000     -73.42540000
S      -46.93900000     -36.79710000     -71.63910000
C      -43.59730000     -32.00280000     -71.86390000
H      -43.82140000     -32.95960000     -71.32950000
H      -42.93910000     -31.44990000     -71.29230000
C      -47.01180000     -35.40230000     -70.37850000
H      -46.52570000     -35.82480000     -69.52870000
H      -48.02720000     -35.17330000     -70.00910000
C      -46.37810000     -34.06290000     -70.88170000
H      -45.34690000     -34.21180000     -70.86900000
H      -46.56730000     -33.88110000     -71.97740000
C      -44.97590000     -31.28560000     -72.13950000
H      -45.72600000     -31.92140000     -72.62200000
H      -44.85390000     -30.46200000     -72.82540000
C      -45.61770000     -30.71480000     -70.88920000
C      -45.54990000     -29.37930000     -70.48440000
C      -46.32320000     -31.54180000     -69.94300000
H      -45.30170000     -28.53230000     -71.11920000
C      -46.78610000     -30.79540000     -68.85850000
C      -46.81100000     -32.92250000     -69.86210000
C      -47.54570000     -33.13830000     -68.72390000
S      -46.26480000     -29.16980000     -68.87520000
S      -47.78840000     -31.70760000     -67.68360000
H      -48.08320000     -34.04450000     -68.40370000
