40
Properties=species:S:1:pos:R:3 #=T CELL(abcABC):=T 1.889726e+02=T 90.00000=T Traj:=T positionsangstrom=T Step:=T 0=T Bead:=T pbc="F F F"
C      -45.01510000     -29.81640000     -72.48570000
C      -43.82540000     -30.28610000     -71.79910000
C      -43.15330000     -31.33040000     -72.36560000
C      -43.40790000     -31.82650000     -73.67100000
C      -44.52150000     -31.34050000     -74.30830000
C      -45.29790000     -30.34870000     -73.73800000
H      -45.70970000     -29.06760000     -72.13450000
H      -42.28090000     -31.73160000     -71.82110000
H      -44.71820000     -31.82950000     -75.26810000
H      -46.24670000     -30.01690000     -74.18220000
C      -42.58430000     -32.96070000     -74.30520000
H      -41.62260000     -32.65700000     -74.53820000
H      -43.07640000     -33.23870000     -75.25550000
C      -43.39840000     -29.72360000     -70.45820000
H      -42.36010000     -30.05070000     -70.20220000
H      -43.40740000     -28.64450000     -70.31060000
S      -42.35290000     -34.42590000     -73.22350000
S      -44.58130000     -30.27680000     -69.09880000
C      -43.78310000     -34.57310000     -72.13410000
H      -43.59650000     -35.33280000     -71.52560000
H      -43.79940000     -33.68270000     -71.39280000
C      -44.73390000     -32.11030000     -69.34370000
H      -44.82640000     -32.64950000     -68.40920000
H      -43.81970000     -32.31800000     -69.90730000
C      -45.90890000     -32.48960000     -70.27370000
H      -46.69230000     -31.71350000     -70.23930000
H      -45.55960000     -32.57450000     -71.29990000
C      -45.20050000     -34.65680000     -72.78090000
H      -45.14760000     -35.18140000     -73.77400000
H      -45.57410000     -33.64590000     -73.18340000
C      -46.23680000     -35.39980000     -71.89700000
C      -46.67110000     -36.61630000     -72.27160000
C      -46.76850000     -34.92270000     -70.66430000
H      -46.29700000     -37.08670000     -73.20070000
C      -47.77840000     -35.75950000     -70.22770000
C      -46.60630000     -33.76110000     -69.80380000
C      -47.14290000     -33.94970000     -68.57850000
S      -47.90570000     -37.25840000     -71.06930000
S      -48.12740000     -35.44430000     -68.56620000
H      -47.12310000     -33.27800000     -67.69810000
