40
Properties=species:S:1:pos:R:3 #=T CELL(abcABC):=T 1.889726e+02=T 90.00000=T Traj:=T positionsangstrom=T Step:=T 0=T Bead:=T pbc="F F F"
C      -46.13170000     -30.20730000     -69.83810000
C      -44.78030000     -30.28940000     -70.14530000
C      -43.91830000     -31.11470000     -69.39160000
C      -44.39450000     -31.95710000     -68.36900000
C      -45.80720000     -31.80000000     -68.01830000
C      -46.60700000     -30.93500000     -68.70650000
H      -46.81300000     -29.55250000     -70.40660000
H      -42.84720000     -31.09290000     -69.58210000
H      -46.22600000     -32.37100000     -67.13740000
H      -47.67860000     -30.95370000     -68.57070000
C      -43.45580000     -32.79140000     -67.60520000
H      -43.50970000     -32.81500000     -66.56530000
H      -42.41990000     -32.47530000     -67.86040000
C      -44.16070000     -29.41720000     -71.27050000
H      -44.93690000     -28.78870000     -71.77760000
H      -43.33850000     -28.88480000     -70.79380000
S      -43.60000000     -34.72860000     -68.23180000
S      -43.36710000     -30.55900000     -72.66180000
C      -45.20340000     -34.78980000     -69.00420000
H      -45.51220000     -35.87170000     -68.97900000
H      -46.02710000     -34.31200000     -68.45470000
C      -44.71190000     -31.78000000     -72.96670000
H      -45.35120000     -31.34080000     -73.82430000
H      -45.33920000     -31.87540000     -72.05520000
C      -44.06580000     -33.09830000     -73.39190000
H      -43.54570000     -32.95240000     -74.31520000
H      -43.39520000     -33.37320000     -72.53720000
C      -45.17220000     -34.22240000     -70.43210000
H      -44.14970000     -34.45840000     -70.83420000
H      -45.13440000     -33.12580000     -70.34670000
C      -46.26820000     -34.73040000     -71.33090000
C      -47.27340000     -35.57340000     -70.92630000
C      -46.00030000     -34.81250000     -72.78250000
H      -47.58150000     -35.77490000     -69.87910000
C      -46.90470000     -35.74370000     -73.37470000
C      -45.10890000     -34.14530000     -73.72710000
C      -45.24270000     -34.55660000     -75.03360000
S      -48.08150000     -36.31310000     -72.28220000
S      -46.52810000     -35.78250000     -75.09730000
H      -44.48090000     -34.28060000     -75.77540000
