40
Properties=species:S:1:pos:R:3 #=T CELL(abcABC):=T 1.889726e+02=T 90.00000=T Traj:=T positionsangstrom=T Step:=T 0=T Bead:=T pbc="F F F"
C      -45.74310000     -29.87730000     -70.47690000
C      -44.42610000     -30.36350000     -70.46150000
C      -43.97900000     -31.10030000     -69.30520000
C      -44.91420000     -31.67860000     -68.39180000
C      -46.24730000     -31.28790000     -68.51620000
C      -46.60210000     -30.37570000     -69.53810000
H      -45.98100000     -29.13980000     -71.27630000
H      -42.90730000     -31.40450000     -69.21600000
H      -47.09110000     -31.71740000     -67.99660000
H      -47.62740000     -30.08070000     -69.49660000
C      -44.42390000     -32.58430000     -67.27090000
H      -45.21230000     -32.73200000     -66.53430000
H      -43.66850000     -32.05890000     -66.65950000
C      -43.34500000     -29.79450000     -71.39080000
H      -43.73390000     -28.83960000     -71.79240000
H      -42.37290000     -29.61150000     -70.87870000
S      -43.72490000     -34.10440000     -67.82200000
S      -42.90650000     -31.00030000     -72.82690000
C      -45.07400000     -34.73770000     -68.80010000
H      -45.07400000     -35.80580000     -68.74990000
H      -45.96380000     -34.34470000     -68.30490000
C      -44.30770000     -32.12730000     -73.10070000
H      -45.00800000     -31.74470000     -73.83440000
H      -44.88520000     -32.09370000     -72.19390000
C      -43.84630000     -33.52580000     -73.34810000
H      -43.14730000     -33.52180000     -74.16670000
H      -43.28050000     -33.99220000     -72.55480000
C      -45.06590000     -34.36260000     -70.32830000
H      -44.03670000     -34.52540000     -70.72370000
H      -45.13420000     -33.26730000     -70.42230000
C      -46.04570000     -35.08580000     -71.19750000
C      -47.22160000     -35.73800000     -70.82920000
C      -45.93490000     -35.10370000     -72.66370000
H      -47.54990000     -35.84760000     -69.75780000
C      -47.01800000     -35.75280000     -73.25300000
C      -45.04740000     -34.41720000     -73.61830000
C      -45.56490000     -34.58080000     -74.90050000
S      -48.09390000     -36.51010000     -72.18530000
S      -47.01140000     -35.55600000     -75.01570000
H      -45.28610000     -34.02170000     -75.77120000
