40
Properties=species:S:1:pos:R:3 #=T CELL(abcABC):=T 1.889726e+02=T 90.00000=T Traj:=T positionsangstrom=T Step:=T 0=T Bead:=T pbc="F F F"
C      -44.80310000     -29.63280000     -72.67710000
C      -43.74210000     -30.28910000     -71.92690000
C      -43.12420000     -31.37080000     -72.56350000
C      -43.54260000     -31.96630000     -73.77180000
C      -44.64190000     -31.34630000     -74.42110000
C      -45.21470000     -30.23380000     -73.87220000
H      -45.31590000     -28.78520000     -72.20680000
H      -42.24700000     -31.79450000     -72.10980000
H      -44.91580000     -31.64670000     -75.37640000
H      -45.94290000     -29.65180000     -74.43620000
C      -42.74030000     -33.10530000     -74.37290000
H      -41.77190000     -32.67230000     -74.69360000
H      -43.12210000     -33.63910000     -75.28560000
C      -43.33580000     -29.70110000     -70.58820000
H      -42.35150000     -30.05530000     -70.29240000
H      -43.30770000     -28.61210000     -70.71430000
S      -42.44150000     -34.50220000     -73.16980000
S      -44.42650000     -30.18850000     -69.19080000
C      -44.00690000     -34.65000000     -72.12150000
H      -43.81140000     -35.53410000     -71.55450000
H      -43.91220000     -33.68500000     -71.49150000
C      -44.82400000     -32.04830000     -69.27860000
H      -45.03560000     -32.33120000     -68.24790000
H      -43.87340000     -32.57600000     -69.51590000
C      -45.98630000     -32.36920000     -70.17750000
H      -46.65790000     -31.57230000     -70.06600000
H      -45.72060000     -32.37380000     -71.26690000
C      -45.31050000     -34.76380000     -72.87690000
H      -45.06430000     -35.40510000     -73.62200000
H      -45.64210000     -33.79070000     -73.19460000
C      -46.30530000     -35.43670000     -71.90690000
C      -46.94690000     -36.58090000     -72.21620000
C      -46.62890000     -34.94600000     -70.53000000
H      -46.83620000     -37.14500000     -73.13810000
C      -47.40590000     -35.93700000     -69.96700000
C      -46.66150000     -33.68920000     -69.76200000
C      -47.41770000     -33.80700000     -68.63280000
S      -47.80740000     -37.34920000     -70.98070000
S      -48.01540000     -35.37930000     -68.37590000
H      -47.92120000     -32.96740000     -68.14990000
