40
Properties=species:S:1:pos:R:3 #=T CELL(abcABC):=T 1.889726e+02=T 90.00000=T Traj:=T positionsangstrom=T Step:=T 0=T Bead:=T pbc="F F F"
C      -46.04370000     -29.41680000     -71.86830000
C      -45.77610000     -30.04890000     -70.66340000
C      -44.46390000     -30.46720000     -70.41120000
C      -43.39790000     -30.19780000     -71.36810000
C      -43.71210000     -29.63360000     -72.62670000
C      -45.00480000     -29.21930000     -72.82740000
H      -46.98910000     -28.91690000     -72.05060000
H      -44.15680000     -30.86120000     -69.47590000
H      -42.96760000     -29.38660000     -73.37740000
H      -45.30640000     -28.92280000     -73.80870000
C      -42.05900000     -30.81170000     -70.96960000
H      -42.07120000     -31.08730000     -69.96050000
H      -41.19490000     -30.14200000     -71.11190000
C      -46.78150000     -30.39890000     -69.65760000
H      -46.30600000     -30.68950000     -68.75260000
H      -47.45530000     -29.54580000     -69.47570000
S      -41.67680000     -32.26690000     -71.97790000
S      -47.77730000     -31.90590000     -70.21360000
C      -42.97320000     -33.65380000     -71.60450000
H      -42.41770000     -34.56140000     -71.88500000
H      -43.27980000     -33.73130000     -70.55960000
C      -47.15820000     -33.14730000     -68.98780000
H      -47.94630000     -33.83640000     -68.78410000
H      -47.07650000     -32.57620000     -68.05620000
C      -45.81070000     -33.87910000     -69.38990000
H      -45.22130000     -33.11420000     -69.96140000
H      -45.28830000     -34.07130000     -68.48430000
C      -44.28540000     -33.56240000     -72.51930000
H      -44.03150000     -33.25240000     -73.51700000
H      -44.86750000     -32.70230000     -72.11450000
C      -45.06320000     -34.87840000     -72.53930000
C      -45.07650000     -35.73230000     -73.63040000
C      -45.63970000     -35.53020000     -71.38870000
H      -44.68560000     -35.44260000     -74.59940000
C      -46.15730000     -36.82630000     -71.73090000
C      -46.04960000     -35.15710000     -70.08630000
C      -46.83540000     -36.04510000     -69.40590000
S      -46.00520000     -37.21680000     -73.44450000
S      -47.19700000     -37.42570000     -70.47770000
H      -47.46110000     -35.91990000     -68.53800000
