40
Properties=species:S:1:pos:R:3 #=T CELL(abcABC):=T 1.889726e+02=T 90.00000=T Traj:=T positionsangstrom=T Step:=T 0=T Bead:=T pbc="F F F"
C      -46.52390000     -30.38800000     -69.31820000
C      -45.22050000     -30.19790000     -69.74450000
C      -44.21600000     -31.03560000     -69.27290000
C      -44.56090000     -32.03970000     -68.35200000
C      -45.96140000     -32.25130000     -67.91910000
C      -46.91130000     -31.40900000     -68.44830000
H      -47.26790000     -29.63650000     -69.58740000
H      -43.12750000     -30.98540000     -69.54440000
H      -46.21080000     -33.11050000     -67.34200000
H      -47.96980000     -31.48210000     -68.15970000
C      -43.46990000     -32.88760000     -67.79840000
H      -43.33110000     -32.64410000     -66.76250000
H      -42.52580000     -32.52990000     -68.33010000
C      -44.81720000     -29.22010000     -70.80680000
H      -45.68380000     -28.65540000     -71.15060000
H      -44.09000000     -28.53370000     -70.37240000
S      -43.69470000     -34.73570000     -67.88330000
S      -44.08450000     -29.93750000     -72.37240000
C      -44.86970000     -35.10200000     -69.22440000
H      -45.22790000     -36.11440000     -69.01330000
H      -45.77590000     -34.48470000     -69.27560000
C      -45.18290000     -31.41840000     -72.69080000
H      -45.85740000     -31.15690000     -73.46340000
H      -45.69290000     -31.55400000     -71.70050000
C      -44.30100000     -32.62080000     -73.12040000
H      -43.56800000     -32.21680000     -73.79030000
H      -43.71900000     -33.15820000     -72.37210000
C      -44.25100000     -34.98440000     -70.61170000
H      -43.28780000     -35.48120000     -70.69110000
H      -44.00630000     -33.94710000     -70.83530000
C      -45.24300000     -35.48280000     -71.70390000
C      -45.94940000     -36.64400000     -71.53580000
C      -45.56670000     -34.88780000     -72.97940000
H      -45.82480000     -37.35100000     -70.66950000
C      -46.48820000     -35.65020000     -73.78530000
C      -45.33580000     -33.67410000     -73.70030000
C      -45.95390000     -33.53580000     -74.90080000
S      -46.90850000     -37.18270000     -72.87710000
S      -47.00900000     -34.93250000     -75.32450000
H      -45.88050000     -32.72630000     -75.55730000
