40
Properties=species:S:1:pos:R:3 #=T CELL(abcABC):=T 1.889726e+02=T 90.00000=T Traj:=T positionsangstrom=T Step:=T 0=T Bead:=T pbc="F F F"
C      -45.64870000     -29.47240000     -71.75900000
C      -45.62680000     -30.27230000     -70.59690000
C      -44.45250000     -30.83530000     -70.24180000
C      -43.31070000     -30.57880000     -71.08490000
C      -43.31120000     -29.80660000     -72.23780000
C      -44.56620000     -29.25590000     -72.58100000
H      -46.60920000     -29.07890000     -72.04320000
H      -44.31720000     -31.58750000     -69.36190000
H      -42.44890000     -29.66110000     -72.90470000
H      -44.65940000     -28.73520000     -73.52950000
C      -42.04430000     -31.29080000     -70.58090000
H      -42.24420000     -31.82500000     -69.69390000
H      -41.07630000     -30.63530000     -70.48030000
C      -46.90540000     -30.44140000     -69.85480000
H      -46.76860000     -30.37250000     -68.73390000
H      -47.65650000     -29.65610000     -70.09820000
S      -41.51980000     -32.50000000     -71.94850000
S      -47.69360000     -32.09970000     -70.04930000
C      -42.86690000     -33.74340000     -71.83670000
H      -42.47450000     -34.54650000     -72.44850000
H      -42.87540000     -34.18100000     -70.78320000
C      -46.83820000     -32.99850000     -68.73560000
H      -47.47340000     -33.63950000     -68.11420000
H      -46.28920000     -32.33020000     -68.10240000
C      -45.72440000     -34.02910000     -69.25090000
H      -44.93470000     -33.45200000     -69.82450000
H      -45.20390000     -34.36350000     -68.42640000
C      -44.33890000     -33.40740000     -72.35170000
H      -44.15280000     -32.90600000     -73.28500000
H      -44.86070000     -32.72710000     -71.59340000
C      -45.11570000     -34.66180000     -72.57120000
C      -45.06210000     -35.40810000     -73.74090000
C      -45.97580000     -35.25570000     -71.56890000
H      -44.48960000     -35.17570000     -74.61030000
C      -46.61330000     -36.38240000     -72.06070000
C      -46.32970000     -35.01390000     -70.14500000
C      -47.08960000     -36.07580000     -69.65110000
S      -46.23530000     -36.70960000     -73.67770000
S      -47.46470000     -37.31720000     -70.80430000
H      -47.58170000     -36.03850000     -68.67150000
