40
Properties=species:S:1:pos:R:3 #=T CELL(abcABC):=T 1.889726e+02=T 90.00000=T Traj:=T positionsangstrom=T Step:=T 0=T Bead:=T pbc="F F F"
C      -45.65840000     -29.53120000     -71.79360000
C      -45.68410000     -30.08430000     -70.48280000
C      -44.46350000     -30.65930000     -70.05480000
C      -43.33020000     -30.52170000     -70.85340000
C      -43.31530000     -29.85500000     -72.12610000
C      -44.53390000     -29.43840000     -72.64690000
H      -46.61670000     -29.23600000     -72.24670000
H      -44.42170000     -31.13180000     -69.09050000
H      -42.32620000     -29.88470000     -72.72180000
H      -44.61070000     -28.90460000     -73.60180000
C      -42.07830000     -31.35320000     -70.58490000
H      -42.26390000     -31.95850000     -69.79310000
H      -41.15180000     -30.78700000     -70.30160000
C      -46.91220000     -30.35250000     -69.73380000
H      -46.83490000     -30.16520000     -68.63150000
H      -47.63970000     -29.77880000     -70.19820000
S      -41.52350000     -32.45060000     -71.95490000
S      -47.59000000     -32.09780000     -70.04960000
C      -42.70810000     -33.95370000     -71.85570000
H      -42.17930000     -34.80840000     -72.32250000
H      -42.84580000     -34.10980000     -70.75910000
C      -46.76940000     -33.12280000     -68.73170000
H      -47.60410000     -33.65290000     -68.30250000
H      -46.40490000     -32.47740000     -67.92040000
C      -45.63170000     -34.04830000     -69.30450000
H      -44.82900000     -33.48410000     -69.88000000
H      -45.19340000     -34.54060000     -68.39390000
C      -44.07160000     -33.57540000     -72.49580000
H      -43.94330000     -33.09330000     -73.41890000
H      -44.48990000     -32.83090000     -71.84820000
C      -45.04900000     -34.74810000     -72.58560000
C      -45.26210000     -35.33390000     -73.82150000
C      -45.80910000     -35.38580000     -71.55620000
H      -44.89070000     -34.96940000     -74.80490000
C      -46.52840000     -36.45020000     -72.04050000
C      -46.16330000     -35.17080000     -70.12540000
C      -47.09630000     -36.10790000     -69.62370000
S      -46.31720000     -36.70000000     -73.69290000
S      -47.77870000     -37.06090000     -70.94110000
H      -47.46250000     -36.09600000     -68.57470000
