40
Properties=species:S:1:pos:R:3 #=T CELL(abcABC):=T 1.889726e+02=T 90.00000=T Traj:=T positionsangstrom=T Step:=T 0=T Bead:=T pbc="F F F"
C      -45.74660000     -29.45790000     -71.72930000
C      -45.72660000     -30.14210000     -70.49890000
C      -44.49370000     -30.71710000     -70.05120000
C      -43.32900000     -30.64730000     -70.85150000
C      -43.34560000     -29.88080000     -72.01940000
C      -44.50380000     -29.21650000     -72.44050000
H      -46.65470000     -28.95530000     -71.97250000
H      -44.49630000     -31.20910000     -69.06630000
H      -42.40950000     -29.70920000     -72.53870000
H      -44.42950000     -28.52280000     -73.26250000
C      -42.01240000     -31.30230000     -70.37220000
H      -42.19170000     -31.65130000     -69.34930000
H      -41.13270000     -30.57880000     -70.49690000
C      -47.08590000     -30.46500000     -69.76800000
H      -47.05790000     -30.24410000     -68.66250000
H      -47.81530000     -29.87820000     -70.20610000
S      -41.37660000     -32.72970000     -71.44070000
S      -47.71010000     -32.17350000     -70.02940000
C      -42.68170000     -33.98000000     -71.49460000
H      -42.27120000     -34.77910000     -72.14150000
H      -42.92050000     -34.39950000     -70.52690000
C      -46.60310000     -33.12340000     -68.77850000
H      -47.25140000     -33.71840000     -68.15740000
H      -46.11220000     -32.36980000     -68.13350000
C      -45.63300000     -34.11880000     -69.48000000
H      -44.87480000     -33.57150000     -70.08910000
H      -45.13880000     -34.65250000     -68.70590000
C      -43.95300000     -33.50220000     -72.26400000
H      -43.70820000     -33.15200000     -73.23970000
H      -44.54220000     -32.62610000     -71.86220000
C      -44.91770000     -34.71380000     -72.56000000
C      -44.92110000     -35.32680000     -73.77450000
C      -45.93310000     -35.28230000     -71.71940000
H      -44.68580000     -34.84120000     -74.70080000
C      -46.67220000     -36.26590000     -72.31890000
C      -46.34290000     -35.10040000     -70.35790000
C      -47.31520000     -35.96430000     -69.93610000
S      -46.22070000     -36.61730000     -73.95110000
S      -47.85400000     -37.00980000     -71.24150000
H      -47.72980000     -35.80920000     -68.95350000
