40
Properties=species:S:1:pos:R:3 #=T CELL(abcABC):=T 1.889726e+02=T 90.00000=T Traj:=T positionsangstrom=T Step:=T 0=T Bead:=T pbc="F F F"
C      -45.92430000     -29.39410000     -71.93250000
C      -45.68110000     -29.98730000     -70.67710000
C      -44.40540000     -30.50250000     -70.40060000
C      -43.33120000     -30.32680000     -71.38130000
C      -43.56590000     -29.56830000     -72.55870000
C      -44.88550000     -29.15070000     -72.80650000
H      -46.99310000     -29.17000000     -72.19090000
H      -44.19970000     -31.04330000     -69.55860000
H      -42.77050000     -29.33800000     -73.26290000
H      -45.10820000     -28.66260000     -73.71590000
C      -41.96580000     -30.86520000     -71.00360000
H      -41.65040000     -30.91200000     -69.86450000
H      -41.21360000     -30.13770000     -71.36910000
C      -46.91950000     -30.25450000     -69.84090000
H      -46.70990000     -30.11400000     -68.73620000
H      -47.70190000     -29.57120000     -70.07220000
S      -41.61630000     -32.55940000     -71.90990000
S      -47.75040000     -31.87660000     -70.17250000
C      -43.04450000     -33.61880000     -71.43120000
H      -42.62220000     -34.64750000     -71.42190000
H      -43.35500000     -33.47250000     -70.40060000
C      -47.18080000     -33.11310000     -68.90580000
H      -48.07750000     -33.75190000     -68.77930000
H      -46.93300000     -32.52920000     -67.97410000
C      -45.88830000     -33.87240000     -69.29740000
H      -45.24280000     -33.30450000     -69.94520000
H      -45.26230000     -34.07300000     -68.39770000
C      -44.17110000     -33.53080000     -72.43440000
H      -43.78940000     -33.39830000     -73.48940000
H      -44.73530000     -32.58930000     -72.16750000
C      -45.10740000     -34.76060000     -72.51130000
C      -45.13920000     -35.55540000     -73.63530000
C      -45.83900000     -35.42600000     -71.41890000
H      -44.63840000     -35.30610000     -74.57670000
C      -46.39710000     -36.63590000     -71.82170000
C      -46.21270000     -35.20280000     -70.04220000
C      -46.86520000     -36.24790000     -69.48110000
S      -46.08060000     -37.06850000     -73.50080000
S      -47.13640000     -37.54850000     -70.56980000
H      -47.22390000     -36.24180000     -68.46850000
