40
Properties=species:S:1:pos:R:3 #=T CELL(abcABC):=T 1.889726e+02=T 90.00000=T Traj:=T positionsangstrom=T Step:=T 0=T Bead:=T pbc="F F F"
C      -45.75950000     -29.47190000     -71.81770000
C      -45.75250000     -30.28430000     -70.69490000
C      -44.54640000     -30.91240000     -70.28700000
C      -43.36320000     -30.74340000     -70.93290000
C      -43.28490000     -29.80890000     -71.96980000
C      -44.47590000     -29.14920000     -72.38310000
H      -46.69750000     -29.15480000     -72.25900000
H      -44.59790000     -31.41390000     -69.28850000
H      -42.39040000     -29.68710000     -72.46820000
H      -44.48700000     -28.53980000     -73.24130000
C      -42.16660000     -31.46800000     -70.36410000
H      -42.34960000     -31.84360000     -69.37630000
H      -41.32930000     -30.76940000     -70.24870000
C      -47.04880000     -30.38480000     -69.88120000
H      -46.94380000     -30.00230000     -68.86660000
H      -47.80650000     -29.75800000     -70.38580000
S      -41.49170000     -32.74870000     -71.44470000
S      -47.67140000     -32.21570000     -69.85180000
C      -42.79420000     -33.99760000     -71.62280000
H      -42.32620000     -34.89790000     -71.96370000
H      -43.23930000     -34.25430000     -70.64800000
C      -46.66110000     -33.09140000     -68.64400000
H      -47.29040000     -33.67020000     -67.96450000
H      -46.21360000     -32.40070000     -67.88140000
C      -45.61690000     -33.98160000     -69.34370000
H      -44.91110000     -33.32330000     -69.82660000
H      -45.06840000     -34.55150000     -68.56630000
C      -43.97440000     -33.55880000     -72.48020000
H      -43.61400000     -33.22130000     -73.45650000
H      -44.51650000     -32.73210000     -71.96870000
C      -44.88560000     -34.70780000     -72.69100000
C      -45.09370000     -35.31200000     -73.89820000
C      -45.74210000     -35.32210000     -71.67080000
H      -44.71400000     -35.01720000     -74.83460000
C      -46.57870000     -36.30390000     -72.22450000
C      -46.21560000     -34.94130000     -70.36580000
C      -47.26830000     -35.72800000     -69.92610000
S      -46.22810000     -36.67530000     -73.93730000
S      -47.73860000     -36.89990000     -71.13090000
H      -47.79450000     -35.60440000     -68.97290000
