40
Properties=species:S:1:pos:R:3 #=T CELL(abcABC):=T 1.889726e+02=T 90.00000=T Traj:=T positionsangstrom=T Step:=T 0=T Bead:=T pbc="F F F"
C      -45.64710000     -29.49370000     -71.73010000
C      -45.65790000     -30.18750000     -70.48560000
C      -44.43950000     -30.67150000     -70.06380000
C      -43.20420000     -30.56610000     -70.79080000
C      -43.20270000     -29.94810000     -72.04400000
C      -44.44330000     -29.47180000     -72.44680000
H      -46.61850000     -29.14330000     -72.08370000
H      -44.42860000     -31.17590000     -69.12250000
H      -42.33690000     -29.85740000     -72.70280000
H      -44.48290000     -29.05520000     -73.48070000
C      -42.02300000     -31.27490000     -70.23410000
H      -42.25100000     -31.60100000     -69.23380000
H      -41.17310000     -30.63040000     -70.17370000
C      -46.83980000     -30.35320000     -69.65010000
H      -46.45840000     -30.44110000     -68.60050000
H      -47.60520000     -29.62100000     -69.62640000
S      -41.46050000     -32.54520000     -71.49020000
S      -47.60190000     -32.03290000     -70.11190000
C      -42.63780000     -33.94470000     -71.37720000
H      -42.15630000     -34.88520000     -71.62840000
H      -42.89470000     -34.02520000     -70.28710000
C      -46.98690000     -33.15980000     -68.77820000
H      -47.83370000     -33.67100000     -68.35550000
H      -46.45680000     -32.47530000     -68.08190000
C      -45.94270000     -34.17220000     -69.27990000
H      -45.04920000     -33.59240000     -69.63010000
H      -45.56040000     -34.76560000     -68.41790000
C      -43.93130000     -33.63310000     -72.28240000
H      -43.55340000     -33.19130000     -73.20500000
H      -44.40880000     -32.81380000     -71.73250000
C      -44.90150000     -34.80400000     -72.55260000
C      -44.93810000     -35.37320000     -73.80400000
C      -45.85840000     -35.39390000     -71.64150000
H      -44.21600000     -35.06360000     -74.59120000
C      -46.62510000     -36.32260000     -72.33940000
C      -46.41390000     -35.14820000     -70.31700000
C      -47.38840000     -36.05190000     -70.02440000
S      -46.24790000     -36.56440000     -73.99800000
S      -47.90780000     -37.05640000     -71.34270000
H      -47.74600000     -36.10200000     -69.02900000
