40
Properties=species:S:1:pos:R:3 #=T CELL(abcABC):=T 1.889726e+02=T 90.00000=T Traj:=T positionsangstrom=T Step:=T 0=T Bead:=T pbc="F F F"
C      -42.05880000     -34.27500000     -69.55090000
C      -42.83530000     -33.24400000     -69.04920000
C      -43.10620000     -32.05790000     -69.83590000
C      -42.55780000     -31.98920000     -71.10360000
C      -41.75470000     -33.03720000     -71.59540000
C      -41.44910000     -34.18610000     -70.82100000
H      -41.77660000     -35.18090000     -68.96620000
H      -43.44410000     -31.23210000     -69.22280000
H      -41.41130000     -32.92590000     -72.66050000
H      -40.83490000     -35.03570000     -71.31630000
C      -42.69710000     -30.65060000     -71.86640000
H      -41.82600000     -30.02510000     -71.87340000
H      -43.44690000     -30.04410000     -71.34820000
C      -43.32330000     -33.41590000     -67.62840000
H      -42.55200000     -33.78240000     -66.99890000
H      -43.69910000     -32.37140000     -67.29010000
S      -43.07910000     -30.77100000     -73.70940000
S      -44.74590000     -34.61260000     -67.45370000
C      -44.72890000     -31.35510000     -73.77470000
H      -45.35040000     -30.48320000     -73.96970000
H      -44.78720000     -32.08400000     -74.59380000
C      -45.89480000     -33.98590000     -68.75660000
H      -45.74570000     -32.89650000     -68.69020000
H      -46.92850000     -34.22700000     -68.44820000
C      -45.51770000     -34.53790000     -70.10540000
H      -44.93220000     -33.93740000     -70.66210000
H      -45.14970000     -35.52610000     -70.03750000
C      -45.18330000     -32.27290000     -72.56870000
H      -45.18780000     -31.60000000     -71.74260000
H      -44.48670000     -33.10120000     -72.37340000
C      -46.61330000     -32.79000000     -72.75990000
C      -47.50220000     -32.31620000     -73.69340000
C      -47.09510000     -33.95590000     -72.03820000
H      -47.31030000     -31.52160000     -74.32740000
C      -48.32110000     -34.33630000     -72.63330000
C      -46.74770000     -34.77570000     -70.90140000
C      -47.64320000     -35.85100000     -70.71810000
S      -48.96040000     -33.30950000     -73.88400000
S      -48.97710000     -35.78100000     -71.91840000
H      -47.52960000     -36.64440000     -69.99810000
