40
Properties=species:S:1:pos:R:3 #=T CELL(abcABC):=T 1.889726e+02=T 90.00000=T Traj:=T positionsangstrom=T Step:=T 0=T Bead:=T pbc="F F F"
C      -45.56400000     -29.62580000     -71.71670000
C      -45.58120000     -30.20390000     -70.42920000
C      -44.31020000     -30.64830000     -69.93250000
C      -43.12350000     -30.57340000     -70.70980000
C      -43.22000000     -30.04810000     -72.07130000
C      -44.42220000     -29.54850000     -72.50390000
H      -46.56660000     -29.26350000     -72.14470000
H      -44.29490000     -31.08580000     -68.92630000
H      -42.26500000     -30.04860000     -72.63100000
H      -44.52140000     -29.06990000     -73.48270000
C      -41.79190000     -31.30360000     -70.33520000
H      -41.82480000     -31.75820000     -69.28390000
H      -40.86370000     -30.68030000     -70.20050000
C      -46.94200000     -30.45290000     -69.69620000
H      -46.79740000     -30.39840000     -68.60980000
H      -47.72440000     -29.65060000     -70.02170000
S      -41.36290000     -32.70860000     -71.43070000
S      -47.62620000     -32.04930000     -70.16800000
C      -42.86710000     -33.79950000     -71.28750000
H      -42.45660000     -34.73450000     -71.57260000
H      -43.20750000     -33.85400000     -70.25740000
C      -47.17600000     -33.20410000     -68.87850000
H      -48.02920000     -33.73310000     -68.38750000
H      -46.85280000     -32.56870000     -68.05420000
C      -46.03280000     -34.08270000     -69.31530000
H      -45.28930000     -33.45770000     -69.77050000
H      -45.53810000     -34.46570000     -68.38140000
C      -44.01970000     -33.40290000     -72.18310000
H      -43.59140000     -33.10530000     -73.19000000
H      -44.68310000     -32.67350000     -71.78290000
C      -44.94770000     -34.70190000     -72.49720000
C      -44.94140000     -35.24980000     -73.77300000
C      -45.90370000     -35.36970000     -71.63750000
H      -44.14780000     -34.98790000     -74.45190000
C      -46.63050000     -36.39080000     -72.32580000
C      -46.43510000     -35.16160000     -70.29280000
C      -47.52550000     -35.97370000     -70.03770000
S      -46.08940000     -36.53310000     -73.99400000
S      -47.95670000     -37.01240000     -71.42070000
H      -48.18790000     -35.98140000     -69.19560000
