40
Properties=species:S:1:pos:R:3 #=T CELL(abcABC):=T 1.889726e+02=T 90.00000=T Traj:=T positionsangstrom=T Step:=T 0=T Bead:=T pbc="F F F"
C      -45.63900000     -29.34710000     -71.06550000
C      -45.78120000     -30.25660000     -69.98380000
C      -44.63220000     -31.01450000     -69.74310000
C      -43.37990000     -30.84570000     -70.37110000
C      -43.32530000     -29.82560000     -71.31880000
C      -44.47790000     -29.16790000     -71.75390000
H      -46.48000000     -28.68510000     -71.20000000
H      -44.65960000     -31.74110000     -68.92070000
H      -42.34440000     -29.70440000     -71.83160000
H      -44.46900000     -28.41570000     -72.51760000
C      -42.17850000     -31.69990000     -70.02400000
H      -42.45750000     -32.30470000     -69.10450000
H      -41.40270000     -31.07840000     -69.64860000
C      -46.95870000     -30.42770000     -69.13440000
H      -46.71370000     -30.55050000     -68.09080000
H      -47.59080000     -29.57900000     -69.16660000
S      -41.40760000     -32.68160000     -71.37620000
S      -48.03080000     -31.90600000     -69.62420000
C      -42.68890000     -34.01830000     -71.53240000
H      -42.06670000     -34.73310000     -72.03780000
H      -42.87430000     -34.46130000     -70.53010000
C      -47.02750000     -33.33280000     -68.95070000
H      -47.77410000     -34.06390000     -68.56590000
H      -46.57020000     -32.95080000     -68.08730000
C      -45.97160000     -34.03030000     -69.81080000
H      -45.24380000     -33.37140000     -70.40990000
H      -45.30640000     -34.61530000     -69.15680000
C      -43.86980000     -33.49720000     -72.41160000
H      -43.47660000     -33.09590000     -73.35290000
H      -44.36990000     -32.64190000     -71.89850000
C      -44.78880000     -34.68150000     -72.79220000
C      -44.56510000     -35.28080000     -73.97790000
C      -45.86060000     -35.25060000     -72.04420000
H      -43.68980000     -35.07310000     -74.59990000
C      -46.55940000     -36.27100000     -72.81850000
C      -46.52040000     -35.00440000     -70.81750000
C      -47.58120000     -35.85190000     -70.62910000
S      -45.66550000     -36.59230000     -74.28840000
S      -47.83040000     -37.05190000     -71.94010000
H      -48.13640000     -35.98360000     -69.65700000
