40
Properties=species:S:1:pos:R:3 #=T CELL(abcABC):=T 1.889726e+02=T 90.00000=T Traj:=T positionsangstrom=T Step:=T 0=T Bead:=T pbc="F F F"
C      -46.16540000     -29.76350000     -71.24890000
C      -46.28160000     -30.46170000     -70.05530000
C      -45.11270000     -30.93540000     -69.44660000
C      -43.82530000     -30.69240000     -69.97510000
C      -43.71500000     -29.85470000     -71.15640000
C      -44.89330000     -29.35780000     -71.72180000
H      -47.10770000     -29.41060000     -71.74700000
H      -45.25660000     -31.57640000     -68.48020000
H      -42.66680000     -29.57950000     -71.52790000
H      -44.83410000     -28.72970000     -72.59940000
C      -42.62160000     -31.43400000     -69.33100000
H      -42.89370000     -31.94810000     -68.30470000
H      -41.92620000     -30.55170000     -69.07290000
C      -47.67900000     -30.81600000     -69.60650000
H      -47.78800000     -30.74000000     -68.51970000
H      -48.41810000     -30.04510000     -69.99470000
S      -41.51790000     -32.43910000     -70.35270000
S      -48.38580000     -32.49310000     -70.13410000
C      -42.47990000     -33.75110000     -71.06560000
H      -41.82860000     -34.45940000     -71.59030000
H      -43.06060000     -34.35370000     -70.29440000
C      -47.45590000     -33.68240000     -69.12260000
H      -48.10540000     -34.45230000     -68.89440000
H      -47.14540000     -33.17330000     -68.21120000
C      -46.19060000     -34.09130000     -69.80240000
H      -45.66940000     -33.20430000     -70.21420000
H      -45.48530000     -34.58960000     -69.19910000
C      -43.57490000     -33.28660000     -72.07190000
H      -43.18650000     -32.79320000     -72.94120000
H      -44.34280000     -32.69390000     -71.60900000
C      -44.30750000     -34.51180000     -72.69980000
C      -43.81540000     -35.04750000     -73.86510000
C      -45.47030000     -35.16100000     -72.17610000
H      -42.96010000     -34.69300000     -74.37800000
C      -46.00850000     -36.04440000     -73.13080000
C      -46.41100000     -35.06690000     -70.99970000
C      -47.42390000     -35.93160000     -71.09890000
S      -44.85620000     -36.32760000     -74.44150000
S      -47.40130000     -36.93560000     -72.55750000
H      -48.16940000     -36.18150000     -70.23280000
