40
Properties=species:S:1:pos:R:3 #=T CELL(abcABC):=T 1.889726e+02=T 90.00000=T Traj:=T positionsangstrom=T Step:=T 0=T Bead:=T pbc="F F F"
C      -48.46490000     -31.82890000     -70.19460000
C      -47.35580000     -30.92870000     -70.09170000
C      -46.36480000     -31.27470000     -69.19590000
C      -46.56970000     -32.22470000     -68.21590000
C      -47.78570000     -32.91200000     -68.17940000
C      -48.76440000     -32.69180000     -69.13160000
H      -49.22050000     -31.66600000     -70.99550000
H      -45.34860000     -30.85590000     -69.28360000
H      -48.02750000     -33.68970000     -67.40410000
H      -49.70780000     -33.23140000     -69.21440000
C      -45.39490000     -32.72320000     -67.38450000
H      -45.54580000     -32.68930000     -66.30490000
H      -44.51840000     -32.05420000     -67.62260000
C      -47.24820000     -29.79320000     -71.13170000
H      -48.00010000     -29.97420000     -71.86470000
H      -47.41850000     -28.83310000     -70.61600000
S      -45.08140000     -34.43530000     -67.73020000
S      -45.54230000     -29.57800000     -72.00640000
C      -45.15780000     -34.58180000     -69.55930000
H      -45.45890000     -35.60670000     -69.73480000
H      -45.88600000     -33.89740000     -69.94650000
C      -45.56260000     -31.02990000     -73.17490000
H      -44.73580000     -30.81660000     -73.80810000
H      -46.48080000     -31.03070000     -73.75900000
C      -45.38490000     -32.37190000     -72.41000000
H      -44.52630000     -32.22500000     -71.71600000
H      -46.20140000     -32.51020000     -71.74890000
C      -43.81080000     -34.31270000     -70.14620000
H      -43.02960000     -34.61900000     -69.44720000
H      -43.81610000     -33.23050000     -70.32910000
C      -43.59240000     -35.01580000     -71.50830000
C      -42.86070000     -36.18480000     -71.57850000
C      -44.20780000     -34.68560000     -72.82190000
H      -42.36970000     -36.71110000     -70.79150000
C      -44.00490000     -35.63860000     -73.77640000
C      -45.13330000     -33.62400000     -73.22690000
C      -45.47150000     -33.77660000     -74.54500000
S      -42.77110000     -36.76130000     -73.22830000
S      -44.64840000     -35.17650000     -75.32500000
H      -45.93530000     -32.90890000     -75.07270000
