40
Properties=species:S:1:pos:R:3 #=T CELL(abcABC):=T 1.889726e+02=T 90.00000=T Traj:=T positionsangstrom=T Step:=T 0=T Bead:=T pbc="F F F"
C      -48.76100000     -31.77580000     -70.11850000
C      -47.62930000     -31.02240000     -70.18090000
C      -46.55600000     -31.41350000     -69.36380000
C      -46.55910000     -32.50700000     -68.51490000
C      -47.75040000     -33.22490000     -68.39260000
C      -48.83950000     -32.82410000     -69.17680000
H      -49.56030000     -31.35120000     -70.67230000
H      -45.71680000     -30.79900000     -69.22920000
H      -47.81720000     -34.09960000     -67.73410000
H      -49.81440000     -33.26320000     -68.98830000
C      -45.34570000     -32.72300000     -67.65240000
H      -45.55350000     -32.31090000     -66.62040000
H      -44.47570000     -32.12950000     -67.97510000
C      -47.54930000     -29.84890000     -71.14300000
H      -48.37090000     -29.92210000     -71.87330000
H      -47.75070000     -28.89360000     -70.67680000
S      -44.88240000     -34.49710000     -67.56250000
S      -45.89450000     -29.50730000     -71.97920000
C      -44.72580000     -34.95480000     -69.40950000
H      -44.60080000     -36.00560000     -69.44000000
H      -45.65560000     -34.69590000     -69.93760000
C      -45.47400000     -30.87040000     -73.07700000
H      -44.47770000     -30.64180000     -73.49500000
H      -46.12950000     -30.87430000     -73.95050000
C      -45.41290000     -32.24710000     -72.43120000
H      -44.78910000     -32.13730000     -71.55600000
H      -46.42820000     -32.55590000     -72.06680000
C      -43.55500000     -34.24090000     -70.08300000
H      -42.63580000     -34.42820000     -69.53700000
H      -43.49440000     -33.18290000     -70.10920000
C      -43.46150000     -34.89840000     -71.48430000
C      -42.84380000     -36.11280000     -71.60700000
C      -44.19020000     -34.54060000     -72.72570000
H      -42.38560000     -36.70200000     -70.81770000
C      -43.83600000     -35.41620000     -73.75720000
C      -44.88240000     -33.39850000     -73.26640000
C      -45.07850000     -33.55030000     -74.64730000
S      -42.96990000     -36.83250000     -73.21160000
S      -44.57930000     -35.11050000     -75.24340000
H      -45.73010000     -33.02650000     -75.26730000
