40
Properties=species:S:1:pos:R:3 #=T CELL(abcABC):=T 1.889726e+02=T 90.00000=T Traj:=T positionsangstrom=T Step:=T 0=T Bead:=T pbc="F F F"
C      -48.81040000     -31.86900000     -70.56320000
C      -47.65650000     -31.09400000     -70.43700000
C      -46.84340000     -31.22450000     -69.31680000
C      -46.97770000     -32.32740000     -68.46760000
C      -48.06270000     -33.19910000     -68.63350000
C      -48.97610000     -32.93740000     -69.70000000
H      -49.62600000     -31.85370000     -71.33400000
H      -46.01090000     -30.47680000     -69.18200000
H      -48.17630000     -34.06410000     -68.01170000
H      -49.59530000     -33.68880000     -70.05770000
C      -45.87250000     -32.71320000     -67.45650000
H      -46.26720000     -32.74860000     -66.40180000
H      -45.05690000     -31.97980000     -67.46530000
C      -47.45900000     -29.90110000     -71.46150000
H      -47.88520000     -30.16410000     -72.45560000
H      -47.94290000     -29.00640000     -71.14670000
S      -45.10940000     -34.36790000     -67.74810000
S      -45.76180000     -29.51830000     -71.74670000
C      -45.04220000     -34.71490000     -69.56720000
H      -45.57990000     -35.62880000     -69.76820000
H      -45.53080000     -33.91440000     -70.07660000
C      -45.09530000     -30.82510000     -72.77580000
H      -44.18640000     -30.34400000     -73.18440000
H      -45.74090000     -31.03790000     -73.69510000
C      -44.63280000     -32.13320000     -72.11270000
H      -43.88190000     -31.91750000     -71.31980000
H      -45.54280000     -32.56040000     -71.68710000
C      -43.54430000     -34.67620000     -70.05050000
H      -42.86920000     -35.15850000     -69.37040000
H      -43.13720000     -33.61700000     -70.05170000
C      -43.49770000     -35.30870000     -71.33780000
C      -43.41950000     -36.66880000     -71.50560000
C      -43.69920000     -34.54720000     -72.65440000
H      -43.11150000     -37.43360000     -70.79310000
C      -43.64110000     -35.41470000     -73.72340000
C      -44.21450000     -33.25640000     -73.04260000
C      -44.49520000     -33.20750000     -74.39520000
S      -43.41590000     -37.10300000     -73.19320000
S      -44.24210000     -34.76040000     -75.21310000
H      -44.86660000     -32.36930000     -74.96320000
