40
Properties=species:S:1:pos:R:3 #=T CELL(abcABC):=T 1.889726e+02=T 90.00000=T Traj:=T positionsangstrom=T Step:=T 0=T Bead:=T pbc="F F F"
C      -45.51720000     -33.23950000     -75.02860000
C      -44.63590000     -32.42050000     -74.29430000
C      -43.44060000     -32.99450000     -73.85960000
C      -43.20270000     -34.37710000     -73.94540000
C      -44.13310000     -35.18440000     -74.62780000
C      -45.23500000     -34.60550000     -75.20000000
H      -46.30480000     -32.70620000     -75.57820000
H      -42.76460000     -32.41520000     -73.18820000
H      -43.96000000     -36.24610000     -74.74230000
H      -45.90190000     -35.25390000     -75.80540000
C      -41.98600000     -34.98560000     -73.26500000
H      -41.28440000     -34.16470000     -72.97320000
H      -41.46830000     -35.57500000     -73.97390000
C      -45.02840000     -31.04040000     -74.14000000
H      -44.11390000     -30.35020000     -74.37420000
H      -45.85380000     -30.88090000     -74.85060000
S      -42.39810000     -36.13200000     -71.90520000
S      -45.84140000     -30.62570000     -72.46540000
C      -42.94710000     -35.04220000     -70.47410000
H      -42.86470000     -35.68150000     -69.62480000
H      -42.15950000     -34.26110000     -70.31220000
C      -47.30510000     -31.78400000     -72.58770000
H      -47.65830000     -31.79910000     -73.59400000
H      -48.04150000     -31.16450000     -72.08970000
C      -47.18370000     -33.21380000     -72.05250000
H      -47.94560000     -33.85380000     -72.56830000
H      -46.18130000     -33.69840000     -72.12880000
C      -44.32590000     -34.59650000     -70.77470000
H      -44.89920000     -35.57590000     -70.99260000
H      -44.30230000     -33.99590000     -71.67310000
C      -44.98170000     -33.79920000     -69.55570000
C      -44.37950000     -33.65160000     -68.28010000
C      -46.34490000     -33.31760000     -69.57470000
H      -43.32840000     -33.78270000     -67.96970000
C      -46.76270000     -33.03820000     -68.23540000
C      -47.44010000     -33.22200000     -70.54210000
C      -48.64100000     -32.96230000     -69.94780000
S      -45.44830000     -32.88900000     -67.06710000
S      -48.51980000     -32.79350000     -68.14800000
H      -49.63970000     -32.98850000     -70.46010000
