40
Properties=species:S:1:pos:R:3 #=T CELL(abcABC):=T 1.889726e+02=T 90.00000=T Traj:=T positionsangstrom=T Step:=T 0=T Bead:=T pbc="F F F"
C      -49.08960000     -31.69600000     -70.57340000
C      -47.77080000     -31.22690000     -70.35490000
C      -46.98890000     -31.81940000     -69.38130000
C      -47.45030000     -32.91570000     -68.53650000
C      -48.80830000     -33.31680000     -68.77450000
C      -49.58780000     -32.70440000     -69.76170000
H      -49.66540000     -31.29990000     -71.36960000
H      -45.93450000     -31.51870000     -69.23840000
H      -49.30050000     -34.04360000     -68.05730000
H      -50.56250000     -33.01040000     -70.01110000
C      -46.47160000     -33.62750000     -67.62190000
H      -46.72490000     -33.66660000     -66.56970000
H      -45.39990000     -33.19860000     -67.73940000
C      -47.38780000     -30.03490000     -71.20470000
H      -47.72070000     -30.21350000     -72.24920000
H      -47.92660000     -29.12860000     -70.81410000
S      -46.29360000     -35.41440000     -68.07110000
S      -45.69900000     -29.45430000     -71.36760000
C      -45.62880000     -35.53830000     -69.76990000
H      -45.53210000     -36.65250000     -69.87420000
H      -46.46660000     -35.18880000     -70.45710000
C      -45.02050000     -30.69230000     -72.54630000
H      -44.26370000     -30.21860000     -73.13880000
H      -45.87140000     -31.07630000     -73.18240000
C      -44.40300000     -31.90930000     -71.87000000
H      -43.48360000     -31.59690000     -71.31890000
H      -45.13810000     -32.35530000     -71.14790000
C      -44.28440000     -34.87200000     -70.08670000
H      -43.57180000     -35.34080000     -69.35290000
H      -44.34020000     -33.79530000     -69.99490000
C      -43.74970000     -35.20470000     -71.47440000
C      -43.25490000     -36.42470000     -71.77790000
C      -43.65540000     -34.32210000     -72.57570000
H      -43.35170000     -37.14620000     -70.96520000
C      -43.04570000     -34.93220000     -73.71850000
C      -43.97320000     -32.93960000     -72.84750000
C      -43.69240000     -32.61340000     -74.18220000
S      -42.66270000     -36.60730000     -73.44850000
S      -42.88010000     -33.88580000     -75.09560000
H      -43.68780000     -31.65410000     -74.59010000
