40
Properties=species:S:1:pos:R:3 #=T CELL(abcABC):=T 1.889726e+02=T 90.00000=T Traj:=T positionsangstrom=T Step:=T 0=T Bead:=T pbc="F F F"
C      -48.99610000     -31.20950000     -70.22040000
C      -47.58800000     -30.97850000     -70.13200000
C      -46.85750000     -31.68940000     -69.23680000
C      -47.44180000     -32.71630000     -68.51910000
C      -48.80860000     -32.99540000     -68.64050000
C      -49.58290000     -32.23740000     -69.47480000
H      -49.54680000     -30.67590000     -71.04870000
H      -45.76900000     -31.56560000     -69.10580000
H      -49.39370000     -33.71920000     -68.09890000
H      -50.63960000     -32.45400000     -69.62530000
C      -46.51110000     -33.48500000     -67.68600000
H      -46.80040000     -33.53740000     -66.59000000
H      -45.55310000     -33.02590000     -67.76960000
C      -47.09800000     -29.81480000     -70.97940000
H      -47.44160000     -29.94660000     -71.97850000
H      -47.54130000     -28.87140000     -70.61360000
S      -46.37190000     -35.25980000     -68.25870000
S      -45.32010000     -29.55320000     -71.09060000
C      -45.89630000     -35.22220000     -70.06210000
H      -46.35150000     -36.13910000     -70.46120000
H      -46.40550000     -34.36740000     -70.49610000
C      -44.59690000     -30.75050000     -72.27580000
H      -43.50630000     -30.63350000     -72.22150000
H      -44.96790000     -30.48530000     -73.24260000
C      -44.86210000     -32.25550000     -72.02050000
H      -44.73280000     -32.64870000     -71.03070000
H      -45.97540000     -32.42990000     -72.23960000
C      -44.31820000     -35.10070000     -70.25620000
H      -43.94930000     -35.90870000     -69.65150000
H      -43.91060000     -34.06370000     -69.97010000
C      -43.87510000     -35.44230000     -71.64870000
C      -43.41540000     -36.71760000     -71.86460000
C      -43.79890000     -34.53550000     -72.76480000
H      -43.51690000     -37.68160000     -71.26510000
C      -43.18740000     -35.14520000     -73.87180000
C      -44.04110000     -33.14400000     -72.97260000
C      -43.52580000     -32.69660000     -74.19200000
S      -42.86870000     -36.81320000     -73.57180000
S      -42.90430000     -34.02170000     -75.15510000
H      -43.53650000     -31.63920000     -74.54940000
