40
Properties=species:S:1:pos:R:3 #=T CELL(abcABC):=T 1.889726e+02=T 90.00000=T Traj:=T positionsangstrom=T Step:=T 0=T Bead:=T pbc="F F F"
C      -49.10730000     -32.55330000     -70.96130000
C      -48.27930000     -31.52550000     -70.42680000
C      -47.59360000     -31.87800000     -69.25810000
C      -47.64500000     -33.19240000     -68.78170000
C      -48.53430000     -34.18240000     -69.31260000
C      -49.24850000     -33.81770000     -70.45760000
H      -49.69570000     -32.47830000     -71.87530000
H      -46.96100000     -31.09680000     -68.84220000
H      -48.51680000     -35.12430000     -68.79550000
H      -50.02310000     -34.40710000     -70.97370000
C      -46.72730000     -33.57070000     -67.61180000
H      -47.34690000     -33.87620000     -66.77750000
H      -46.08750000     -32.78140000     -67.28020000
C      -48.12240000     -30.23770000     -71.10470000
H      -48.52730000     -30.36880000     -72.12530000
H      -48.54830000     -29.40180000     -70.53930000
S      -45.73740000     -35.11880000     -67.91450000
S      -46.27630000     -29.72540000     -71.09740000
C      -45.08050000     -35.14390000     -69.61740000
H      -44.99140000     -36.25260000     -69.91670000
H      -45.85410000     -34.70740000     -70.21030000
C      -45.49120000     -30.74700000     -72.36890000
H      -44.57140000     -30.24370000     -72.75450000
H      -46.09780000     -30.77550000     -73.28110000
C      -45.15420000     -32.18470000     -71.90960000
H      -44.63620000     -32.11530000     -70.94840000
H      -46.07280000     -32.79470000     -71.74550000
C      -43.67320000     -34.58290000     -69.94850000
H      -42.95300000     -35.07350000     -69.32700000
H      -43.62590000     -33.49670000     -69.74810000
C      -43.29040000     -34.90210000     -71.37600000
C      -42.51470000     -35.99180000     -71.68640000
C      -43.41690000     -34.04080000     -72.55200000
H      -42.21080000     -36.76010000     -70.91800000
C      -42.79790000     -34.61590000     -73.70490000
C      -44.22420000     -32.90940000     -72.91510000
C      -44.14110000     -32.51990000     -74.24480000
S      -42.07150000     -36.12460000     -73.37420000
S      -43.08880000     -33.64700000     -75.13500000
H      -44.43880000     -31.56130000     -74.64020000
