40
Properties=species:S:1:pos:R:3 #=T CELL(abcABC):=T 1.889726e+02=T 90.00000=T Traj:=T positionsangstrom=T Step:=T 0=T Bead:=T pbc="F F F"
C      -49.24790000     -31.70700000     -70.45350000
C      -47.93460000     -31.22460000     -70.35170000
C      -47.05070000     -31.86890000     -69.47050000
C      -47.36420000     -33.06130000     -68.79450000
C      -48.62970000     -33.62150000     -69.08760000
C      -49.55580000     -32.90480000     -69.84400000
H      -50.10180000     -31.13080000     -70.95020000
H      -46.03970000     -31.38520000     -69.31410000
H      -48.76260000     -34.60690000     -68.66970000
H      -50.49010000     -33.40070000     -70.01530000
C      -46.46700000     -33.70620000     -67.78110000
H      -46.79910000     -33.51370000     -66.73560000
H      -45.46130000     -33.25430000     -67.75330000
C      -47.63460000     -29.96780000     -71.15490000
H      -48.06030000     -30.16500000     -72.13720000
H      -48.18960000     -29.11320000     -70.73230000
S      -46.19870000     -35.46920000     -68.15000000
S      -45.84810000     -29.44990000     -71.25300000
C      -45.55310000     -35.39730000     -69.92660000
H      -45.53380000     -36.34980000     -70.45970000
H      -46.28910000     -34.84830000     -70.45380000
C      -45.06270000     -30.54460000     -72.53990000
H      -44.41600000     -29.89460000     -73.17840000
H      -45.76700000     -30.90100000     -73.29450000
C      -44.49310000     -31.80600000     -71.85580000
H      -43.82500000     -31.54900000     -71.07490000
H      -45.31940000     -32.26350000     -71.34210000
C      -44.20600000     -34.74880000     -69.98960000
H      -43.60030000     -35.07260000     -69.16200000
H      -44.30680000     -33.65810000     -69.86670000
C      -43.61310000     -35.07510000     -71.36420000
C      -43.17210000     -36.32060000     -71.64910000
C      -43.58080000     -34.19490000     -72.53450000
H      -43.12980000     -37.14130000     -70.97560000
C      -42.97670000     -34.92230000     -73.61770000
C      -43.82480000     -32.82240000     -72.86640000
C      -43.58050000     -32.59970000     -74.21650000
S      -42.60280000     -36.57320000     -73.30330000
S      -42.97830000     -34.01760000     -75.08520000
H      -43.67020000     -31.67240000     -74.80180000
