40
Properties=species:S:1:pos:R:3 #=T CELL(abcABC):=T 1.889726e+02=T 90.00000=T Traj:=T positionsangstrom=T Step:=T 0=T Bead:=T pbc="F F F"
C      -42.71650000     -33.39570000     -72.68170000
C      -42.25420000     -33.01480000     -71.39010000
C      -42.54010000     -31.75480000     -70.86940000
C      -43.24980000     -30.85810000     -71.68130000
C      -43.58810000     -31.17530000     -73.00160000
C      -43.36740000     -32.50100000     -73.51170000
H      -42.34480000     -34.37670000     -73.08890000
H      -42.21290000     -31.43590000     -69.86360000
H      -44.05010000     -30.39940000     -73.58150000
H      -43.76370000     -32.82270000     -74.40380000
C      -43.57630000     -29.52440000     -71.12090000
H      -43.64210000     -28.69010000     -71.78340000
H      -42.89090000     -29.21510000     -70.35240000
C      -41.40130000     -33.98600000     -70.59710000
H      -40.99080000     -34.77300000     -71.19020000
H      -40.53990000     -33.44750000     -70.08920000
S      -45.21460000     -29.58800000     -70.22880000
S      -42.31860000     -34.85890000     -69.26750000
C      -46.35380000     -30.62990000     -71.32180000
H      -47.35820000     -30.13560000     -71.26420000
H      -45.97550000     -30.60900000     -72.36760000
C      -43.84700000     -35.50800000     -70.17110000
H      -43.76860000     -36.61390000     -70.04050000
H      -43.78310000     -35.12010000     -71.19120000
C      -45.21690000     -35.06880000     -69.59960000
H      -45.42940000     -35.49250000     -68.58710000
H      -45.13870000     -34.01800000     -69.36010000
C      -46.33170000     -32.00650000     -70.86680000
H      -46.52050000     -32.04030000     -69.75610000
H      -45.32950000     -32.44120000     -71.03320000
C      -47.22610000     -33.03340000     -71.46720000
C      -48.15560000     -32.67480000     -72.40670000
C      -47.14640000     -34.46510000     -71.32290000
H      -48.62510000     -31.74050000     -72.54650000
C      -48.02540000     -35.12030000     -72.14610000
C      -46.32110000     -35.41310000     -70.57960000
C      -46.67340000     -36.70470000     -70.77210000
S      -49.05600000     -34.00710000     -73.09310000
S      -47.99590000     -36.89530000     -71.89220000
H      -46.20050000     -37.59950000     -70.26810000
