40
Properties=species:S:1:pos:R:3 #=T CELL(abcABC):=T 1.889726e+02=T 90.00000=T Traj:=T positionsangstrom=T Step:=T 0=T Bead:=T pbc="F F F"
C      -42.58210000     -33.37690000     -72.85920000
C      -42.42700000     -33.17900000     -71.41550000
C      -42.77310000     -31.95600000     -70.87380000
C      -43.18360000     -30.92690000     -71.72580000
C      -43.28510000     -31.10570000     -73.07670000
C      -42.97040000     -32.32460000     -73.69080000
H      -42.15730000     -34.35450000     -73.32560000
H      -42.64460000     -31.81590000     -69.86960000
H      -43.68350000     -30.33370000     -73.69360000
H      -43.13810000     -32.34830000     -74.78490000
C      -43.49730000     -29.58870000     -71.13250000
H      -43.67920000     -28.77610000     -71.83050000
H      -42.73460000     -29.26440000     -70.38610000
C      -41.84550000     -34.29230000     -70.58260000
H      -41.91320000     -35.22080000     -71.07960000
H      -40.79450000     -34.02590000     -70.34610000
S      -45.10840000     -29.58780000     -70.17420000
S      -42.65410000     -34.58740000     -68.93520000
C      -46.23720000     -30.57470000     -71.17260000
H      -47.26110000     -30.15990000     -71.01610000
H      -45.96310000     -30.45880000     -72.24920000
C      -44.04560000     -35.65250000     -69.54740000
H      -43.98890000     -36.61570000     -69.04640000
H      -43.90730000     -35.80570000     -70.61140000
C      -45.46860000     -35.06800000     -69.38690000
H      -45.95850000     -35.44050000     -68.45860000
H      -45.28790000     -33.95030000     -69.31590000
C      -46.22360000     -32.07860000     -70.72560000
H      -46.42150000     -32.12750000     -69.64310000
H      -45.24000000     -32.52240000     -70.87860000
C      -47.12080000     -33.02890000     -71.55350000
C      -48.13080000     -32.63660000     -72.39010000
C      -47.07360000     -34.50860000     -71.43110000
H      -48.27600000     -31.61630000     -72.73210000
C      -47.93600000     -35.13090000     -72.36000000
C      -46.38930000     -35.43000000     -70.60010000
C      -46.75670000     -36.73040000     -70.80060000
S      -48.97630000     -33.99790000     -73.29390000
S      -47.83160000     -36.84620000     -72.18410000
H      -46.51660000     -37.64560000     -70.31440000
