40
Properties=species:S:1:pos:R:3 #=T CELL(abcABC):=T 1.889726e+02=T 90.00000=T Traj:=T positionsangstrom=T Step:=T 0=T Bead:=T pbc="F F F"
C      -44.77030000     -31.87370000     -68.30960000
C      -45.44780000     -30.85200000     -69.04600000
C      -44.81880000     -30.44720000     -70.25380000
C      -43.49680000     -30.65840000     -70.59380000
C      -42.82590000     -31.55790000     -69.74440000
C      -43.45470000     -32.23600000     -68.67040000
H      -45.32450000     -32.27160000     -67.42450000
H      -45.49400000     -29.82260000     -70.87950000
H      -41.79560000     -31.85470000     -69.94000000
H      -42.85560000     -33.00000000     -68.12270000
C      -42.72690000     -30.17780000     -71.80300000
H      -41.65410000     -30.55100000     -71.91690000
H      -42.65060000     -29.12540000     -71.75740000
C      -46.85250000     -30.61790000     -68.79580000
H      -47.06430000     -30.91520000     -67.74370000
H      -47.14290000     -29.58930000     -68.94750000
S      -43.63050000     -30.49800000     -73.36960000
S      -48.02700000     -31.52700000     -69.89870000
C      -43.75970000     -32.33590000     -73.39960000
H      -43.83780000     -32.53690000     -74.46150000
H      -42.77560000     -32.80290000     -73.08860000
C      -47.40700000     -33.27120000     -69.83380000
H      -47.76220000     -33.72980000     -68.96490000
H      -46.34090000     -33.28790000     -69.69970000
C      -47.80790000     -33.87950000     -71.13420000
H      -48.88390000     -34.06250000     -71.20400000
H      -47.67450000     -33.19550000     -71.97730000
C      -44.88410000     -32.94030000     -72.56480000
H      -45.85540000     -32.81610000     -73.01030000
H      -44.89920000     -32.54450000     -71.60930000
C      -44.75650000     -34.43910000     -72.56170000
C      -43.68520000     -35.14340000     -73.04540000
C      -45.76650000     -35.29860000     -71.93710000
H      -42.73060000     -34.75410000     -73.45350000
C      -45.50850000     -36.62350000     -72.23010000
C      -47.09170000     -35.22060000     -71.40350000
C      -47.77390000     -36.39850000     -71.34770000
S      -43.83720000     -36.86840000     -72.85300000
S      -46.80830000     -37.76530000     -71.84650000
H      -48.70690000     -36.57200000     -70.91590000
