40
Properties=species:S:1:pos:R:3 #=T CELL(abcABC):=T 1.889726e+02=T 90.00000=T Traj:=T positionsangstrom=T Step:=T 0=T Bead:=T pbc="F F F"
C      -42.32030000     -33.39980000     -72.72480000
C      -42.00350000     -32.97530000     -71.44460000
C      -42.41280000     -31.67230000     -70.97810000
C      -43.23280000     -30.90630000     -71.84630000
C      -43.62230000     -31.42630000     -73.13780000
C      -43.16640000     -32.65770000     -73.57740000
H      -41.98940000     -34.36090000     -73.02680000
H      -42.05690000     -31.33840000     -70.02430000
H      -44.09850000     -30.69280000     -73.84140000
H      -43.47480000     -33.08600000     -74.53430000
C      -43.70470000     -29.53570000     -71.41320000
H      -43.87850000     -28.97100000     -72.29610000
H      -42.85790000     -29.05590000     -70.90650000
C      -41.29650000     -33.88820000     -70.51340000
H      -40.58290000     -34.51540000     -71.14690000
H      -40.65310000     -33.35130000     -69.85270000
S      -45.12850000     -29.49410000     -70.26840000
S      -42.32900000     -35.04280000     -69.50140000
C      -46.38300000     -30.65460000     -71.02770000
H      -47.25260000     -30.21720000     -70.50580000
H      -46.41020000     -30.36550000     -72.09390000
C      -43.78470000     -35.49820000     -70.49180000
H      -43.76230000     -36.60240000     -70.71480000
H      -43.75610000     -34.98310000     -71.49150000
C      -45.09360000     -35.21980000     -69.76880000
H      -45.13490000     -35.85650000     -68.86260000
H      -45.17190000     -34.15380000     -69.36570000
C      -46.14490000     -32.09560000     -70.78170000
H      -46.05490000     -32.37920000     -69.64360000
H      -45.20840000     -32.56010000     -71.23580000
C      -47.18780000     -33.00360000     -71.38300000
C      -48.17170000     -32.56040000     -72.27130000
C      -47.17380000     -34.41920000     -71.20960000
H      -48.19010000     -31.51870000     -72.55960000
C      -48.23530000     -35.04120000     -71.87080000
C      -46.33620000     -35.42550000     -70.55480000
C      -46.93360000     -36.67600000     -70.71690000
S      -49.13870000     -33.91370000     -72.83710000
S      -48.33220000     -36.79750000     -71.74520000
H      -46.48920000     -37.55070000     -70.34960000
