40
Properties=species:S:1:pos:R:3 #=T CELL(abcABC):=T 1.889726e+02=T 90.00000=T Traj:=T positionsangstrom=T Step:=T 0=T Bead:=T pbc="F F F"
C      -44.55520000     -31.91010000     -68.19900000
C      -45.30470000     -31.06200000     -68.99590000
C      -44.68470000     -30.48790000     -70.14090000
C      -43.36020000     -30.76960000     -70.51400000
C      -42.60600000     -31.53940000     -69.61150000
C      -43.15250000     -32.05820000     -68.43170000
H      -44.98920000     -32.18630000     -67.24500000
H      -45.25190000     -29.97670000     -70.94430000
H      -41.56830000     -31.76140000     -69.87770000
H      -42.59870000     -32.62920000     -67.71720000
C      -42.70780000     -30.30410000     -71.74420000
H      -41.73150000     -30.81360000     -71.95240000
H      -42.44440000     -29.17520000     -71.70820000
C      -46.73290000     -30.84060000     -68.66070000
H      -46.98050000     -31.32470000     -67.70690000
H      -46.92790000     -29.77740000     -68.52900000
S      -43.83100000     -30.41760000     -73.23520000
S      -47.98110000     -31.48280000     -69.95910000
C      -43.95020000     -32.27770000     -73.35340000
H      -43.69170000     -32.66660000     -74.43590000
H      -43.12870000     -32.63440000     -72.73670000
C      -47.15160000     -33.14300000     -70.20580000
H      -47.21560000     -33.86990000     -69.33910000
H      -46.05000000     -33.00350000     -70.38300000
C      -47.85850000     -33.81550000     -71.42980000
H      -48.87360000     -34.05680000     -71.24220000
H      -47.71870000     -33.20020000     -72.27930000
C      -45.21180000     -33.00160000     -72.97800000
H      -46.03550000     -32.66980000     -73.52860000
H      -45.55610000     -32.74880000     -71.97080000
C      -45.08470000     -34.46990000     -72.91490000
C      -43.87340000     -35.07290000     -73.15410000
C      -45.95000000     -35.32700000     -72.26280000
H      -42.96110000     -34.71180000     -73.65600000
C      -45.46870000     -36.65430000     -72.14780000
C      -47.20970000     -35.14710000     -71.60000000
C      -47.74570000     -36.31450000     -71.21630000
S      -43.93760000     -36.86410000     -72.88170000
S      -46.67070000     -37.80000000     -71.53550000
H      -48.69240000     -36.55070000     -70.64040000
