40
Properties=species:S:1:pos:R:3 #=T CELL(abcABC):=T 1.889726e+02=T 90.00000=T Traj:=T positionsangstrom=T Step:=T 0=T Bead:=T pbc="F F F"
C      -44.22030000     -31.77530000     -67.90340000
C      -45.16130000     -31.14930000     -68.71420000
C      -44.69710000     -30.51710000     -69.92100000
C      -43.39690000     -30.69860000     -70.36960000
C      -42.40850000     -31.34030000     -69.59920000
C      -42.86540000     -31.84820000     -68.34290000
H      -44.47490000     -32.14740000     -66.93130000
H      -45.43450000     -30.11420000     -70.60130000
H      -41.56810000     -31.68100000     -70.11500000
H      -42.13680000     -32.16240000     -67.58080000
C      -42.98060000     -30.06780000     -71.75910000
H      -41.95450000     -30.37150000     -71.93350000
H      -42.97810000     -28.99180000     -71.74970000
C      -46.62820000     -31.15620000     -68.39940000
H      -46.83000000     -31.94740000     -67.64440000
H      -46.87870000     -30.24340000     -67.84140000
S      -44.04800000     -30.54670000     -73.21620000
S      -47.82040000     -31.34650000     -69.87790000
C      -43.62140000     -32.38020000     -73.24230000
H      -42.83860000     -32.56400000     -73.98100000
H      -43.21770000     -32.58040000     -72.24850000
C      -47.60550000     -33.16120000     -70.17460000
H      -48.12490000     -33.69010000     -69.40300000
H      -46.55830000     -33.41450000     -69.95360000
C      -47.89600000     -33.70280000     -71.58830000
H      -49.01430000     -33.81780000     -71.65700000
H      -47.50050000     -32.98340000     -72.32790000
C      -44.94770000     -33.09290000     -73.44420000
H      -45.41100000     -32.91490000     -74.43200000
H      -45.74240000     -32.69430000     -72.76790000
C      -44.88050000     -34.61590000     -73.13490000
C      -43.93740000     -35.43760000     -73.65740000
C      -45.93890000     -35.33590000     -72.37430000
H      -43.06550000     -35.14230000     -74.24230000
C      -45.65560000     -36.71140000     -72.33200000
C      -47.18680000     -34.96950000     -71.72940000
C      -47.76540000     -36.08170000     -71.17850000
S      -44.07160000     -37.10780000     -73.12260000
S      -46.78520000     -37.62590000     -71.27720000
H      -48.70030000     -36.14540000     -70.60290000
