40
Properties=species:S:1:pos:R:3 #=T CELL(abcABC):=T 1.889726e+02=T 90.00000=T Traj:=T positionsangstrom=T Step:=T 0=T Bead:=T pbc="F F F"
C      -44.62510000     -31.64640000     -68.10130000
C      -45.34060000     -30.88360000     -69.03110000
C      -44.70210000     -30.43770000     -70.16290000
C      -43.44970000     -30.89590000     -70.59150000
C      -42.76350000     -31.69550000     -69.70930000
C      -43.38100000     -32.14190000     -68.53400000
H      -45.23480000     -31.99600000     -67.27280000
H      -45.29280000     -29.68160000     -70.78860000
H      -41.70980000     -31.99020000     -69.94750000
H      -42.82720000     -32.86500000     -67.91320000
C      -42.76560000     -30.14070000     -71.80600000
H      -41.75540000     -30.45310000     -71.89090000
H      -42.79120000     -29.07120000     -71.60760000
C      -46.79230000     -30.58610000     -68.75400000
H      -47.10620000     -30.66750000     -67.73990000
H      -46.99650000     -29.52020000     -69.00810000
S      -43.59230000     -30.43950000     -73.37970000
S      -47.96420000     -31.52830000     -69.87070000
C      -43.74920000     -32.27790000     -73.54830000
H      -43.80060000     -32.39380000     -74.60000000
H      -42.83320000     -32.67660000     -73.17480000
C      -47.48120000     -33.26870000     -69.91740000
H      -47.74900000     -33.76440000     -68.98990000
H      -46.37570000     -33.32500000     -70.12900000
C      -48.09620000     -34.01530000     -71.19700000
H      -48.99830000     -34.52570000     -70.79810000
H      -48.34340000     -33.24980000     -71.98370000
C      -44.93390000     -32.88390000     -72.85220000
H      -45.91260000     -32.49280000     -73.38410000
H      -44.90050000     -32.39830000     -71.84600000
C      -44.90730000     -34.38860000     -72.72760000
C      -43.74770000     -35.06540000     -72.98260000
C      -45.94300000     -35.34760000     -72.22580000
H      -42.78060000     -34.79790000     -73.42180000
C      -45.49490000     -36.66590000     -72.24880000
C      -47.32020000     -35.28040000     -71.57180000
C      -47.77850000     -36.52700000     -71.30870000
S      -43.89830000     -36.81490000     -72.82940000
S      -46.66190000     -37.83360000     -71.65490000
H      -48.76220000     -36.80440000     -70.94050000
