40
Properties=species:S:1:pos:R:3 #=T CELL(abcABC):=T 1.889726e+02=T 90.00000=T Traj:=T positionsangstrom=T Step:=T 0=T Bead:=T pbc="F F F"
C      -40.96130000     -33.70280000     -73.16130000
C      -41.64440000     -33.80870000     -71.97700000
C      -42.25700000     -32.71400000     -71.36720000
C      -42.32640000     -31.50830000     -72.02640000
C      -41.55290000     -31.43250000     -73.23880000
C      -40.79500000     -32.41990000     -73.75420000
H      -40.43510000     -34.51860000     -73.69940000
H      -42.86360000     -32.67660000     -70.40570000
H      -41.39490000     -30.38900000     -73.72280000
H      -40.11500000     -32.28890000     -74.64840000
C      -43.01760000     -30.31170000     -71.61370000
H      -43.80520000     -30.00850000     -72.39890000
H      -42.22650000     -29.49870000     -71.56420000
C      -41.76990000     -35.16860000     -71.25350000
H      -41.98910000     -35.98880000     -71.91120000
H      -40.88630000     -35.38800000     -70.69000000
S      -44.06990000     -30.10380000     -70.02400000
S      -43.10660000     -35.30780000     -69.89790000
C      -45.74110000     -30.67200000     -70.65160000
H      -46.40830000     -29.98120000     -70.13430000
H      -45.80030000     -30.54080000     -71.72750000
C      -44.61610000     -35.28470000     -70.98820000
H      -44.65450000     -35.99130000     -71.78140000
H      -44.74680000     -34.34450000     -71.50730000
C      -45.73040000     -35.56260000     -70.02000000
H      -45.68160000     -36.57970000     -69.57270000
H      -45.81160000     -34.95610000     -69.18450000
C      -46.01650000     -32.14330000     -70.35850000
H      -46.02380000     -32.16310000     -69.25820000
H      -45.14700000     -32.76650000     -70.75350000
C      -47.35070000     -32.74490000     -70.85950000
C      -48.31940000     -31.91750000     -71.33220000
C      -47.68990000     -34.11730000     -71.00280000
H      -48.25520000     -30.78420000     -71.37930000
C      -48.92130000     -34.28780000     -71.66920000
C      -47.09300000     -35.39200000     -70.77190000
C      -47.94540000     -36.45960000     -71.07360000
S      -49.68530000     -32.79580000     -72.08430000
S      -49.45260000     -35.91810000     -71.73750000
H      -47.86630000     -37.51500000     -70.69700000
