40
Properties=species:S:1:pos:R:3 #=T CELL(abcABC):=T 1.889726e+02=T 90.00000=T Traj:=T positionsangstrom=T Step:=T 0=T Bead:=T pbc="F F F"
C      -42.14620000     -33.97610000     -73.25350000
C      -41.98220000     -34.01050000     -71.86790000
C      -42.03100000     -32.85410000     -71.06340000
C      -42.14860000     -31.63770000     -71.68770000
C      -42.36670000     -31.57100000     -73.13580000
C      -42.33270000     -32.75740000     -73.85670000
H      -41.94510000     -34.91950000     -73.80070000
H      -42.08520000     -32.99250000     -69.98800000
H      -42.66880000     -30.58490000     -73.63180000
H      -42.65240000     -32.75470000     -74.91560000
C      -42.26070000     -30.35340000     -70.86980000
H      -42.35950000     -29.49440000     -71.56530000
H      -41.34660000     -30.21380000     -70.25490000
C      -41.88360000     -35.34530000     -71.14840000
H      -41.68450000     -36.08670000     -72.01400000
H      -40.87650000     -35.29170000     -70.56730000
S      -43.73980000     -30.38610000     -69.75380000
S      -43.21910000     -35.82030000     -69.92850000
C      -45.07940000     -30.84430000     -70.94170000
H      -45.80280000     -29.99030000     -70.93290000
H      -44.68560000     -30.75970000     -71.96950000
C      -44.77540000     -35.71870000     -70.88760000
H      -44.91140000     -36.57480000     -71.55440000
H      -44.63480000     -34.92320000     -71.61870000
C      -45.92210000     -35.45460000     -69.88710000
H      -46.12210000     -36.36230000     -69.36030000
H      -45.64770000     -34.64040000     -69.21760000
C      -45.60050000     -32.18940000     -70.65640000
H      -45.70740000     -32.39530000     -69.57380000
H      -44.79220000     -32.94430000     -70.96690000
C      -46.91920000     -32.53700000     -71.29780000
C      -47.78160000     -31.66860000     -71.82940000
C      -47.54660000     -33.82560000     -71.24180000
H      -47.63610000     -30.57610000     -72.06030000
C      -48.79460000     -33.89380000     -71.81940000
C      -47.15610000     -35.15290000     -70.66930000
C      -48.16550000     -36.08800000     -70.86880000
S      -49.32730000     -32.31520000     -72.44790000
S      -49.61390000     -35.44520000     -71.67930000
H      -48.09470000     -37.17980000     -70.58740000
