40
Properties=species:S:1:pos:R:3 #=T CELL(abcABC):=T 1.889726e+02=T 90.00000=T Traj:=T positionsangstrom=T Step:=T 0=T Bead:=T pbc="F F F"
C      -41.00000000     -33.65720000     -73.06650000
C      -41.68850000     -33.74880000     -71.84800000
C      -42.40220000     -32.67760000     -71.34290000
C      -42.28910000     -31.47510000     -72.08360000
C      -41.50310000     -31.39960000     -73.23930000
C      -40.90730000     -32.51630000     -73.81560000
H      -40.47680000     -34.58150000     -73.51920000
H      -42.86770000     -32.71380000     -70.36370000
H      -41.53910000     -30.48350000     -73.82400000
H      -40.23280000     -32.37590000     -74.64850000
C      -42.98780000     -30.30000000     -71.57690000
H      -43.55300000     -29.84390000     -72.36580000
H      -42.21360000     -29.54620000     -71.33690000
C      -41.79830000     -35.18040000     -71.26710000
H      -41.91120000     -35.92270000     -72.15840000
H      -40.74960000     -35.36030000     -70.80830000
S      -43.92310000     -30.39400000     -70.04650000
S      -42.97050000     -35.61550000     -69.90510000
C      -45.70970000     -30.70500000     -70.62360000
H      -46.36190000     -29.92450000     -70.13990000
H      -45.72910000     -30.38990000     -71.70090000
C      -44.59110000     -35.55840000     -70.83150000
H      -44.72280000     -36.49660000     -71.39080000
H      -44.50030000     -34.69990000     -71.53640000
C      -45.87960000     -35.37760000     -69.92220000
H      -45.84490000     -36.30920000     -69.35800000
H      -45.63490000     -34.60040000     -69.14890000
C      -46.09180000     -32.13370000     -70.32680000
H      -46.19500000     -32.32120000     -69.25860000
H      -45.21490000     -32.74840000     -70.63550000
C      -47.38910000     -32.56350000     -70.92640000
C      -48.28040000     -31.78310000     -71.60930000
C      -47.79220000     -33.95430000     -71.05130000
H      -48.21780000     -30.67420000     -71.69590000
C      -49.06920000     -34.15800000     -71.59030000
C      -47.17570000     -35.24050000     -70.63730000
C      -47.94730000     -36.33460000     -70.96950000
S      -49.75140000     -32.59240000     -72.14110000
S      -49.40740000     -35.85480000     -71.80440000
H      -47.49090000     -37.38760000     -70.92880000
