40
Properties=species:S:1:pos:R:3 #=T CELL(abcABC):=T 1.889726e+02=T 90.00000=T Traj:=T positionsangstrom=T Step:=T 0=T Bead:=T pbc="F F F"
C      -43.10100000     -34.39010000     -73.00900000
C      -42.21040000     -34.43620000     -71.89120000
C      -41.77780000     -33.20420000     -71.24750000
C      -42.32850000     -32.01230000     -71.74740000
C      -42.97910000     -31.95200000     -72.97460000
C      -43.33850000     -33.18490000     -73.62350000
H      -43.43300000     -35.25340000     -73.50880000
H      -41.18940000     -33.25890000     -70.29970000
H      -43.38270000     -30.96680000     -73.25910000
H      -44.09040000     -33.12850000     -74.44520000
C      -42.13200000     -30.70060000     -70.97060000
H      -42.33460000     -30.00630000     -71.73810000
H      -41.18740000     -30.57310000     -70.52480000
C      -42.01140000     -35.78840000     -71.24370000
H      -41.91110000     -36.52120000     -72.08120000
H      -41.03780000     -35.78810000     -70.72200000
S      -43.38740000     -30.35750000     -69.62040000
S      -43.33300000     -36.17930000     -69.99270000
C      -45.13110000     -30.67510000     -70.25600000
H      -45.72600000     -30.27970000     -69.48490000
H      -45.32630000     -30.02860000     -71.13610000
C      -44.92370000     -35.57110000     -70.73170000
H      -45.08990000     -36.17560000     -71.65420000
H      -44.75620000     -34.58150000     -71.21350000
C      -46.07350000     -35.41820000     -69.75830000
H      -46.41490000     -36.33840000     -69.23640000
H      -45.79760000     -34.70780000     -68.99600000
C      -45.42880000     -32.12700000     -70.49680000
H      -45.67670000     -32.61350000     -69.57190000
H      -44.56120000     -32.54810000     -70.95050000
C      -46.59520000     -32.40380000     -71.36750000
C      -47.27100000     -31.43980000     -72.13280000
C      -47.36710000     -33.60870000     -71.24100000
H      -46.84870000     -30.57030000     -72.56650000
C      -48.51190000     -33.52950000     -72.01900000
C      -47.23720000     -34.85010000     -70.57870000
C      -48.32080000     -35.69370000     -70.81800000
S      -48.84640000     -31.94000000     -72.68230000
S      -49.52560000     -35.03310000     -71.92880000
H      -48.58710000     -36.68710000     -70.42260000
