40
Properties=species:S:1:pos:R:3 #=T CELL(abcABC):=T 1.889726e+02=T 90.00000=T Traj:=T positionsangstrom=T Step:=T 0=T Bead:=T pbc="F F F"
C      -42.79730000     -34.90150000     -73.52320000
C      -42.47880000     -35.01060000     -72.16550000
C      -42.19670000     -33.87840000     -71.36280000
C      -42.07370000     -32.65110000     -71.96680000
C      -42.23710000     -32.49720000     -73.39220000
C      -42.65140000     -33.64450000     -74.11130000
H      -43.12820000     -35.74210000     -74.06280000
H      -42.06170000     -33.98380000     -70.26000000
H      -42.06610000     -31.45680000     -73.83870000
H      -42.60340000     -33.46970000     -75.19740000
C      -41.58420000     -31.45370000     -71.11400000
H      -41.41360000     -30.63150000     -71.83600000
H      -40.72510000     -31.72170000     -70.51540000
C      -42.55320000     -36.34180000     -71.44980000
H      -43.02350000     -37.11890000     -71.99440000
H      -41.67650000     -36.76730000     -70.93440000
S      -42.85470000     -30.70380000     -69.84410000
S      -43.70910000     -36.09270000     -69.95960000
C      -44.48360000     -30.72650000     -70.75110000
H      -44.98250000     -29.78070000     -70.45390000
H      -44.20870000     -30.58780000     -71.80670000
C      -45.37400000     -35.64460000     -70.69000000
H      -45.76310000     -36.62350000     -70.91610000
H      -45.34080000     -35.09530000     -71.59950000
C      -46.28030000     -35.00260000     -69.62670000
H      -46.53030000     -35.77900000     -68.89220000
H      -45.76400000     -34.22100000     -69.10410000
C      -45.32740000     -32.00430000     -70.50950000
H      -45.39370000     -32.21530000     -69.39000000
H      -44.78410000     -32.83220000     -70.96820000
C      -46.72910000     -32.03560000     -71.10360000
C      -47.26000000     -31.07880000     -71.90670000
C      -47.63020000     -33.14650000     -70.93550000
H      -46.80330000     -30.05270000     -72.15710000
C      -48.79250000     -33.05220000     -71.67860000
C      -47.47630000     -34.43110000     -70.26890000
C      -48.58150000     -35.19860000     -70.50850000
S      -48.82230000     -31.50990000     -72.54310000
S      -49.86920000     -34.42930000     -71.45080000
H      -48.66310000     -36.15450000     -70.04570000
