40
Properties=species:S:1:pos:R:3 #=T CELL(abcABC):=T 1.889726e+02=T 90.00000=T Traj:=T positionsangstrom=T Step:=T 0=T Bead:=T pbc="F F F"
C      -42.92290000     -34.61120000     -73.43280000
C      -42.47610000     -34.85050000     -72.11170000
C      -42.00540000     -33.72770000     -71.38270000
C      -41.94560000     -32.46510000     -72.00730000
C      -42.36000000     -32.32100000     -73.33290000
C      -42.82490000     -33.41820000     -74.09360000
H      -43.33330000     -35.52000000     -73.86360000
H      -41.71010000     -33.89050000     -70.37520000
H      -42.29070000     -31.37960000     -73.84380000
H      -43.09800000     -33.34250000     -75.12440000
C      -41.56030000     -31.20280000     -71.20230000
H      -41.44150000     -30.32450000     -71.94280000
H      -40.69660000     -31.34990000     -70.53100000
C      -42.52940000     -36.23870000     -71.55030000
H      -42.80970000     -36.98770000     -72.38460000
H      -41.52760000     -36.49290000     -71.11770000
S      -42.89870000     -30.71680000     -69.99710000
S      -43.61710000     -36.37500000     -70.05390000
C      -44.49110000     -30.79660000     -70.94880000
H      -45.15970000     -30.01470000     -70.54670000
H      -44.27910000     -30.57460000     -71.98050000
C      -45.16450000     -35.70110000     -70.88310000
H      -45.59400000     -36.38710000     -71.58280000
H      -44.92470000     -34.77140000     -71.35020000
C      -46.23620000     -35.25660000     -69.79270000
H      -46.59260000     -36.14670000     -69.31220000
H      -45.67070000     -34.60190000     -69.04310000
C      -45.18650000     -32.18910000     -70.86450000
H      -45.04110000     -32.58200000     -69.83030000
H      -44.69020000     -32.93370000     -71.52230000
C      -46.59670000     -32.24940000     -71.26230000
C      -47.22060000     -31.19730000     -71.85190000
C      -47.53150000     -33.31130000     -71.00360000
H      -46.77780000     -30.10680000     -71.92800000
C      -48.81530000     -33.05170000     -71.49280000
C      -47.47880000     -34.63580000     -70.43920000
C      -48.70520000     -35.26000000     -70.42930000
S      -48.90750000     -31.46550000     -72.20640000
S      -50.01480000     -34.27710000     -71.08840000
H      -48.91300000     -36.24990000     -69.94700000
