40
Properties=species:S:1:pos:R:3 #=T CELL(abcABC):=T 1.889726e+02=T 90.00000=T Traj:=T positionsangstrom=T Step:=T 0=T Bead:=T pbc="F F F"
C      -45.20050000     -30.34030000     -67.74230000
C      -44.28830000     -31.09790000     -68.54400000
C      -44.20300000     -30.91720000     -69.94500000
C      -44.95140000     -29.91060000     -70.56000000
C      -45.86110000     -29.20450000     -69.76370000
C      -45.97360000     -29.36720000     -68.36970000
H      -45.24280000     -30.75880000     -66.73860000
H      -43.61000000     -31.61690000     -70.47950000
H      -46.62080000     -28.57190000     -70.29060000
H      -46.61720000     -28.77350000     -67.76620000
C      -44.78740000     -29.57500000     -72.02440000
H      -43.95470000     -29.95610000     -72.49520000
H      -44.85450000     -28.51580000     -72.17690000
C      -43.54300000     -32.23190000     -67.81370000
H      -42.74200000     -32.53910000     -68.45800000
H      -43.16480000     -31.95300000     -66.82790000
S      -46.28010000     -30.06240000     -73.03020000
S      -44.75790000     -33.58500000     -67.69450000
C      -45.75180000     -31.76340000     -73.68640000
H      -46.55790000     -31.99250000     -74.36310000
H      -44.84080000     -31.62390000     -74.27920000
C      -44.54410000     -34.53080000     -69.26310000
H      -44.03830000     -35.50850000     -69.12680000
H      -43.93030000     -33.97170000     -69.87120000
C      -45.89800000     -34.82540000     -69.95140000
H      -46.56420000     -35.25860000     -69.18360000
H      -46.32570000     -33.91000000     -70.30540000
C      -45.69540000     -32.88490000     -72.64650000
H      -46.55610000     -32.88270000     -72.02580000
H      -44.76700000     -32.78850000     -71.99290000
C      -45.44080000     -34.27920000     -73.35020000
C      -45.31160000     -34.47040000     -74.65960000
C      -45.45760000     -35.50480000     -72.54540000
H      -45.40970000     -33.77150000     -75.44060000
C      -45.46390000     -36.63050000     -73.35430000
C      -45.66700000     -35.81290000     -71.13370000
C      -45.86040000     -37.19100000     -70.95240000
S      -45.37480000     -36.23760000     -75.06060000
S      -45.54890000     -38.10230000     -72.42460000
H      -45.83040000     -37.68700000     -69.98690000
