40
Properties=species:S:1:pos:R:3 #=T CELL(abcABC):=T 1.889726e+02=T 90.00000=T Traj:=T positionsangstrom=T Step:=T 0=T Bead:=T pbc="F F F"
C      -46.30390000     -31.55970000     -68.56430000
C      -45.91680000     -30.75490000     -69.63800000
C      -44.54040000     -30.67510000     -69.89240000
C      -43.62950000     -31.45690000     -69.19460000
C      -44.05210000     -32.24190000     -68.09670000
C      -45.42780000     -32.35610000     -67.77880000
H      -47.34600000     -31.63150000     -68.30050000
H      -44.24360000     -30.01660000     -70.70700000
H      -43.38820000     -32.91660000     -67.59430000
H      -45.69200000     -33.01030000     -67.00370000
C      -42.16250000     -31.37660000     -69.61870000
H      -41.54100000     -32.12790000     -69.12570000
H      -41.81960000     -30.35130000     -69.46800000
C      -46.87890000     -29.89390000     -70.33680000
H      -47.84530000     -29.78930000     -69.83100000
H      -46.46290000     -28.88590000     -70.50320000
S      -41.89710000     -31.61620000     -71.47490000
S      -47.27050000     -30.39740000     -72.13540000
C      -42.44280000     -33.35390000     -71.54440000
H      -41.64990000     -33.94620000     -72.08440000
H      -42.43980000     -33.78090000     -70.60480000
C      -47.25740000     -32.24260000     -72.04820000
H      -48.22800000     -32.58360000     -71.75890000
H      -46.55060000     -32.52480000     -71.27870000
C      -46.86960000     -32.89420000     -73.35080000
H      -47.62330000     -32.63620000     -74.10010000
H      -45.83160000     -32.56950000     -73.67130000
C      -43.89310000     -33.55500000     -72.09990000
H      -43.73350000     -33.31690000     -73.16860000
H      -44.60500000     -32.75540000     -71.76590000
C      -44.48080000     -34.93860000     -72.01560000
C      -43.92320000     -36.00940000     -71.34350000
C      -45.81420000     -35.19740000     -72.42720000
H      -43.03140000     -36.07250000     -70.71610000
C      -46.14580000     -36.54790000     -72.22220000
C      -46.84000000     -34.42260000     -73.08030000
C      -47.93660000     -35.24230000     -73.42030000
S      -44.92760000     -37.40740000     -71.37420000
S      -47.65770000     -36.94630000     -72.97300000
H      -48.89480000     -34.88660000     -73.78300000
