40
Properties=species:S:1:pos:R:3 #=T CELL(abcABC):=T 1.889726e+02=T 90.00000=T Traj:=T positionsangstrom=T Step:=T 0=T Bead:=T pbc="F F F"
C      -45.48150000     -30.52730000     -67.74320000
C      -44.48990000     -31.19390000     -68.45320000
C      -44.24190000     -30.89880000     -69.83190000
C      -44.98270000     -29.99470000     -70.52500000
C      -45.95450000     -29.29990000     -69.75060000
C      -46.20010000     -29.54110000     -68.40540000
H      -45.75030000     -30.60610000     -66.63260000
H      -43.36340000     -31.40770000     -70.28880000
H      -46.59440000     -28.50520000     -70.28300000
H      -47.07850000     -29.06860000     -67.90320000
C      -44.70030000     -29.71240000     -72.07660000
H      -43.80460000     -30.29560000     -72.44780000
H      -44.47340000     -28.67990000     -72.25710000
C      -43.52860000     -32.10580000     -67.76310000
H      -42.51380000     -32.01430000     -68.10990000
H      -43.50610000     -31.81260000     -66.68900000
S      -46.21330000     -30.09180000     -73.02940000
S      -44.19540000     -33.81450000     -67.84570000
C      -45.92510000     -31.75580000     -73.73490000
H      -46.81590000     -31.97720000     -74.41240000
H      -45.02880000     -31.87840000     -74.35430000
C      -44.40060000     -34.15110000     -69.66190000
H      -43.66410000     -34.80690000     -69.96630000
H      -44.24380000     -33.25010000     -70.28900000
C      -45.78450000     -34.62610000     -70.02590000
H      -46.37090000     -34.97600000     -69.16380000
H      -46.22160000     -33.72270000     -70.42960000
C      -45.83020000     -32.86470000     -72.70200000
H      -46.79620000     -32.94490000     -72.12240000
H      -45.01080000     -32.65560000     -72.00960000
C      -45.56930000     -34.25030000     -73.35300000
C      -45.51860000     -34.48500000     -74.66140000
C      -45.57150000     -35.39830000     -72.49880000
H      -45.55270000     -33.83110000     -75.53270000
C      -45.53220000     -36.60820000     -73.28220000
C      -45.61790000     -35.65740000     -71.07680000
C      -45.66880000     -37.01550000     -70.82440000
S      -45.48440000     -36.31460000     -74.98050000
S      -45.62610000     -38.00240000     -72.30130000
H      -45.81870000     -37.52430000     -69.83750000
