40
Properties=species:S:1:pos:R:3 #=T CELL(abcABC):=T 1.889726e+02=T 90.00000=T Traj:=T positionsangstrom=T Step:=T 0=T Bead:=T pbc="F F F"
C      -45.16300000     -30.19350000     -67.59950000
C      -44.23310000     -30.99200000     -68.34940000
C      -44.06490000     -30.74270000     -69.73370000
C      -44.97860000     -29.96790000     -70.51020000
C      -45.99030000     -29.42850000     -69.79540000
C      -46.06090000     -29.50150000     -68.39750000
H      -45.28300000     -30.25990000     -66.46320000
H      -43.24770000     -31.23040000     -70.27330000
H      -46.75550000     -28.76590000     -70.35670000
H      -46.79680000     -28.91570000     -67.84970000
C      -44.78720000     -29.83740000     -71.99040000
H      -44.01570000     -30.56010000     -72.27330000
H      -44.37330000     -28.79250000     -72.18150000
C      -43.50620000     -32.12270000     -67.73130000
H      -42.51400000     -32.32190000     -68.20260000
H      -43.28900000     -31.99750000     -66.66550000
S      -46.32230000     -30.13890000     -73.05460000
S      -44.46760000     -33.72480000     -67.69800000
C      -45.86840000     -31.70060000     -73.91120000
H      -46.78060000     -31.86380000     -74.54020000
H      -45.01970000     -31.51520000     -74.58120000
C      -44.50070000     -34.35770000     -69.42190000
H      -43.81810000     -35.26340000     -69.35790000
H      -44.00850000     -33.58840000     -70.08450000
C      -45.83670000     -34.82650000     -69.94920000
H      -46.30890000     -35.46300000     -69.15280000
H      -46.56570000     -34.07410000     -70.08370000
C      -45.63310000     -32.82630000     -72.89820000
H      -46.27000000     -32.65630000     -72.00910000
H      -44.68170000     -32.64440000     -72.46440000
C      -45.65130000     -34.25860000     -73.42430000
C      -45.46560000     -34.55390000     -74.71870000
C      -45.76690000     -35.38990000     -72.53920000
H      -45.44680000     -33.92080000     -75.57810000
C      -45.66700000     -36.55830000     -73.33970000
C      -45.77840000     -35.76770000     -71.12460000
C      -45.77620000     -37.15630000     -70.92490000
S      -45.27760000     -36.23870000     -75.03210000
S      -45.59660000     -38.03690000     -72.39670000
H      -46.03250000     -37.64970000     -69.96590000
