40
Properties=species:S:1:pos:R:3 #=T CELL(abcABC):=T 1.889726e+02=T 90.00000=T Traj:=T positionsangstrom=T Step:=T 0=T Bead:=T pbc="F F F"
C      -41.40610000     -34.10850000     -69.62160000
C      -42.38610000     -33.38350000     -69.02700000
C      -42.78400000     -32.18140000     -69.58580000
C      -42.14170000     -31.75540000     -70.77410000
C      -41.28680000     -32.58660000     -71.48050000
C      -40.82980000     -33.77130000     -70.86860000
H      -41.03740000     -34.98740000     -69.07960000
H      -43.49630000     -31.53530000     -69.11000000
H      -40.88460000     -32.25980000     -72.37230000
H      -40.08440000     -34.34000000     -71.47740000
C      -42.52060000     -30.37480000     -71.25540000
H      -41.53330000     -29.85410000     -71.46050000
H      -42.95740000     -29.67570000     -70.49330000
C      -43.07430000     -33.68330000     -67.68820000
H      -42.48860000     -34.15430000     -66.88130000
H      -43.59500000     -32.85390000     -67.26470000
S      -43.72170000     -30.33760000     -72.67560000
S      -44.49410000     -35.02500000     -68.00730000
C      -44.96450000     -31.63430000     -72.19220000
H      -44.73610000     -31.91180000     -71.18340000
H      -45.91270000     -31.13480000     -72.23580000
C      -45.61530000     -34.24600000     -69.23590000
H      -45.28630000     -33.13320000     -69.43160000
H      -46.57120000     -34.13160000     -68.78760000
C      -45.71910000     -35.07840000     -70.51740000
H      -44.92430000     -34.80950000     -71.29080000
H      -45.58760000     -36.07030000     -70.27340000
C      -45.01330000     -32.89460000     -73.14290000
H      -44.42310000     -33.79800000     -72.92120000
H      -44.67360000     -32.61610000     -74.17280000
C      -46.45440000     -33.36200000     -73.28130000
C      -47.19070000     -32.83340000     -74.32710000
C      -47.26410000     -34.12880000     -72.35420000
H      -46.76250000     -32.26910000     -75.06000000
C      -48.64650000     -34.14360000     -72.78790000
C      -47.06870000     -34.84720000     -71.16690000
C      -48.30240000     -35.39060000     -70.65330000
S      -48.90970000     -33.34850000     -74.31270000
S      -49.62140000     -35.15480000     -71.79780000
H      -48.26500000     -36.10140000     -69.82630000
