40
Properties=species:S:1:pos:R:3 #=T CELL(abcABC):=T 1.889726e+02=T 90.00000=T Traj:=T positionsangstrom=T Step:=T 0=T Bead:=T pbc="F F F"
C      -46.31520000     -31.74040000     -68.67150000
C      -45.94380000     -30.82520000     -69.66180000
C      -44.60210000     -30.61510000     -69.90330000
C      -43.70450000     -31.32680000     -69.20350000
C      -44.06980000     -32.31900000     -68.28170000
C      -45.39290000     -32.47250000     -67.94400000
H      -47.35240000     -31.79850000     -68.47120000
H      -44.16360000     -29.93540000     -70.67250000
H      -43.25770000     -32.85330000     -67.77680000
H      -45.67330000     -33.07550000     -67.14840000
C      -42.26520000     -31.12960000     -69.52770000
H      -41.71030000     -31.87770000     -68.86520000
H      -41.82410000     -30.21180000     -69.15790000
C      -46.97050000     -29.99150000     -70.39590000
H      -47.95720000     -30.16240000     -69.93290000
H      -46.67900000     -28.95190000     -70.38310000
S      -41.85120000     -31.55570000     -71.29280000
S      -46.97000000     -30.47500000     -72.23780000
C      -42.48020000     -33.37290000     -71.51730000
H      -41.77330000     -34.08240000     -72.08420000
H      -42.45190000     -33.75610000     -70.49280000
C      -47.37600000     -32.29820000     -72.11680000
H      -48.47830000     -32.39560000     -71.91160000
H      -46.86380000     -32.67520000     -71.20810000
C      -46.96200000     -32.99130000     -73.36720000
H      -47.59560000     -32.64530000     -74.19220000
H      -45.98410000     -32.61040000     -73.67560000
C      -43.93380000     -33.47370000     -72.02940000
H      -44.05290000     -33.31610000     -73.09740000
H      -44.56950000     -32.76870000     -71.49640000
C      -44.51170000     -34.83610000     -71.90440000
C      -44.01740000     -35.85010000     -71.16450000
C      -45.83960000     -35.16670000     -72.44580000
H      -42.96570000     -35.86190000     -70.82040000
C      -46.12300000     -36.50540000     -72.23000000
C      -46.87180000     -34.45880000     -73.18050000
C      -47.85280000     -35.36310000     -73.61070000
S      -44.91500000     -37.35080000     -71.32460000
S      -47.71100000     -36.97350000     -72.92030000
H      -48.74850000     -35.00540000     -74.11320000
