40
Properties=species:S:1:pos:R:3 #=T CELL(abcABC):=T 1.889726e+02=T 90.00000=T Traj:=T positionsangstrom=T Step:=T 0=T Bead:=T pbc="F F F"
C      -42.90530000     -34.58700000     -73.96720000
C      -42.62600000     -34.69720000     -72.61490000
C      -42.34110000     -33.57240000     -71.88880000
C      -42.26360000     -32.28810000     -72.48070000
C      -42.52930000     -32.20370000     -73.83210000
C      -42.84260000     -33.34680000     -74.55400000
H      -43.13920000     -35.35470000     -74.71260000
H      -42.02520000     -33.60770000     -70.81230000
H      -42.48860000     -31.22960000     -74.42390000
H      -43.19480000     -33.27140000     -75.62210000
C      -41.87720000     -31.05730000     -71.69370000
H      -42.02080000     -30.11800000     -72.24370000
H      -40.83690000     -31.01190000     -71.39590000
C      -42.66420000     -36.13690000     -72.09030000
H      -43.18700000     -36.63540000     -72.92520000
H      -41.66840000     -36.63180000     -72.08950000
S      -42.66880000     -31.00700000     -70.02590000
S      -43.46100000     -36.39630000     -70.47200000
C      -44.53210000     -30.75950000     -70.46800000
H      -45.02110000     -29.91520000     -69.87140000
H      -44.42450000     -30.50750000     -71.54820000
C      -45.06890000     -35.63720000     -70.97010000
H      -45.60560000     -36.21260000     -71.64760000
H      -44.90930000     -34.78320000     -71.59510000
C      -45.97320000     -35.32470000     -69.76580000
H      -46.32920000     -36.23440000     -69.27950000
H      -45.31430000     -34.81920000     -69.06190000
C      -45.20980000     -32.14260000     -70.27930000
H      -45.12040000     -32.41480000     -69.27290000
H      -44.56180000     -32.87270000     -70.68070000
C      -46.66030000     -32.12250000     -70.63050000
C      -47.41920000     -31.01460000     -71.01200000
C      -47.56330000     -33.27540000     -70.58550000
H      -47.05960000     -30.01060000     -71.25720000
C      -48.84090000     -33.03890000     -71.09370000
C      -47.28030000     -34.67030000     -70.30980000
C      -48.38470000     -35.51360000     -70.61650000
S      -49.14730000     -31.36460000     -71.43770000
S      -49.78370000     -34.52260000     -71.03710000
H      -48.55230000     -36.57290000     -70.47240000
