40
Properties=species:S:1:pos:R:3 #=T CELL(abcABC):=T 1.889726e+02=T 90.00000=T Traj:=T positionsangstrom=T Step:=T 0=T Bead:=T pbc="F F F"
C      -41.00410000     -34.80550000     -71.57550000
C      -41.57310000     -33.75120000     -70.89980000
C      -42.45550000     -33.99070000     -69.81420000
C      -42.78210000     -35.27610000     -69.37270000
C      -42.23880000     -36.31550000     -70.10450000
C      -41.31730000     -36.08690000     -71.12140000
H      -40.29460000     -34.56050000     -72.40330000
H      -42.89310000     -33.18600000     -69.30390000
H      -42.36930000     -37.31090000     -69.79990000
H      -40.89330000     -36.98780000     -71.47750000
C      -43.63810000     -35.60820000     -68.19470000
H      -43.14840000     -35.67480000     -67.23020000
H      -44.06600000     -36.59290000     -68.34210000
C      -41.35610000     -32.28330000     -71.33640000
H      -41.63740000     -31.54890000     -70.59590000
H      -40.23500000     -32.21000000     -71.55320000
S      -45.02110000     -34.37070000     -68.00780000
S      -42.21910000     -31.81170000     -72.95660000
C      -45.90090000     -34.61480000     -69.71000000
H      -45.19760000     -34.59480000     -70.60900000
H      -46.29130000     -35.63800000     -69.61760000
C      -43.83700000     -32.71250000     -72.85390000
H      -43.67990000     -33.66430000     -72.44590000
H      -44.28870000     -32.84810000     -73.83840000
C      -44.97240000     -31.94500000     -71.89310000
H      -44.81150000     -32.40840000     -70.91470000
H      -44.65870000     -30.90730000     -71.93070000
C      -46.98750000     -33.59250000     -69.49750000
H      -46.51020000     -32.59340000     -69.35330000
H      -47.60310000     -33.91940000     -68.71900000
C      -47.92170000     -33.45430000     -70.74970000
C      -49.27070000     -33.85740000     -70.73670000
C      -47.60980000     -32.58250000     -71.89990000
H      -49.77930000     -34.38900000     -69.94250000
C      -48.75450000     -32.43020000     -72.73080000
C      -46.42520000     -31.99450000     -72.48340000
C      -46.74440000     -31.43310000     -73.69580000
S      -50.23280000     -33.28030000     -72.15360000
S      -48.44330000     -31.58370000     -74.18760000
H      -46.01590000     -30.86250000     -74.32580000
