40
Properties=species:S:1:pos:R:3 #=T CELL(abcABC):=T 1.889726e+02=T 90.00000=T Traj:=T positionsangstrom=T Step:=T 0=T Bead:=T pbc="F F F"
C      -45.41770000     -31.56090000     -68.46090000
C      -44.20460000     -31.13100000     -69.01280000
C      -44.26640000     -30.30580000     -70.15950000
C      -45.44900000     -29.86130000     -70.67940000
C      -46.63350000     -30.42420000     -70.22410000
C      -46.65440000     -31.15190000     -68.99680000
H      -45.41700000     -31.99800000     -67.45450000
H      -43.26180000     -30.16670000     -70.60820000
H      -47.60870000     -30.13040000     -70.59190000
H      -47.59590000     -31.43420000     -68.55620000
C      -45.44450000     -29.08430000     -71.97010000
H      -44.48530000     -28.55390000     -72.17770000
H      -46.10580000     -28.23600000     -72.05470000
C      -42.90080000     -31.60410000     -68.29030000
H      -41.98070000     -31.37880000     -68.78820000
H      -42.78510000     -31.01270000     -67.35990000
S      -45.98050000     -30.03500000     -73.53570000
S      -42.90870000     -33.45050000     -67.92490000
C      -45.43460000     -31.76400000     -73.41290000
H      -45.36650000     -32.10500000     -74.49370000
H      -44.39450000     -31.61180000     -73.01670000
C      -43.33840000     -34.39080000     -69.53610000
H      -42.94330000     -35.38050000     -69.36310000
H      -42.74280000     -33.91890000     -70.36230000
C      -44.81580000     -34.36090000     -69.94750000
H      -45.48870000     -34.46640000     -69.05520000
H      -44.81900000     -33.34520000     -70.46670000
C      -46.27680000     -32.77340000     -72.63670000
H      -47.37080000     -32.52340000     -72.51310000
H      -45.92920000     -32.59220000     -71.59550000
C      -46.25020000     -34.21190000     -73.04160000
C      -46.65330000     -34.67630000     -74.32170000
C      -45.94340000     -35.29200000     -72.16630000
H      -46.83260000     -33.96750000     -75.14940000
C      -46.21090000     -36.51140000     -72.75830000
C      -45.14780000     -35.46440000     -70.96450000
C      -44.99890000     -36.79000000     -70.66320000
S      -46.61030000     -36.39390000     -74.46580000
S      -45.71650000     -37.86460000     -71.88420000
H      -44.69910000     -37.22300000     -69.74290000
