40
Properties=species:S:1:pos:R:3 #=T CELL(abcABC):=T 1.889726e+02=T 90.00000=T Traj:=T positionsangstrom=T Step:=T 0=T Bead:=T pbc="F F F"
C      -45.73140000     -31.09700000     -68.47850000
C      -44.41710000     -31.11160000     -69.04440000
C      -44.28200000     -30.55550000     -70.32620000
C      -45.35930000     -29.95150000     -70.97650000
C      -46.66300000     -30.07110000     -70.47740000
C      -46.78340000     -30.51890000     -69.12160000
H      -45.86050000     -31.48630000     -67.39090000
H      -43.34250000     -30.65780000     -70.81380000
H      -47.49180000     -29.64730000     -70.96850000
H      -47.72760000     -30.31770000     -68.60530000
C      -45.04960000     -29.25490000     -72.21930000
H      -43.96180000     -29.35080000     -72.37050000
H      -45.55150000     -28.26690000     -72.19430000
C      -43.30810000     -31.79870000     -68.25360000
H      -42.41820000     -31.86110000     -68.87140000
H      -43.05920000     -31.11650000     -67.43320000
S      -46.00230000     -30.04000000     -73.57740000
S      -43.56440000     -33.48360000     -67.58980000
C      -45.33110000     -31.77060000     -73.48440000
H      -45.53090000     -32.09530000     -74.55420000
H      -44.22320000     -31.87020000     -73.43020000
C      -43.61500000     -34.36760000     -69.21000000
H      -43.07520000     -35.32200000     -69.01180000
H      -43.10500000     -33.75390000     -70.01840000
C      -45.07370000     -34.79730000     -69.59510000
H      -45.49130000     -35.26760000     -68.68750000
H      -45.72840000     -33.96730000     -69.87420000
C      -46.03970000     -32.68470000     -72.43980000
H      -47.11490000     -32.27740000     -72.30040000
H      -45.55710000     -32.69940000     -71.47540000
C      -46.14390000     -34.12680000     -72.84930000
C      -46.66870000     -34.51660000     -74.10670000
C      -45.60390000     -35.32790000     -72.19830000
H      -47.23550000     -33.85250000     -74.73130000
C      -45.64350000     -36.48180000     -72.99800000
C      -45.10610000     -35.70580000     -70.82370000
C      -44.89720000     -37.09090000     -70.70230000
S      -46.47890000     -36.20640000     -74.52560000
S      -45.23970000     -38.02170000     -72.12180000
H      -45.01380000     -37.52700000     -69.74940000
