40
Properties=species:S:1:pos:R:3 #=T CELL(abcABC):=T 1.889726e+02=T 90.00000=T Traj:=T positionsangstrom=T Step:=T 0=T Bead:=T pbc="F F F"
C      -45.68060000     -31.38070000     -68.47720000
C      -44.39240000     -31.21750000     -69.00160000
C      -44.32700000     -30.55020000     -70.21780000
C      -45.44790000     -29.96870000     -70.83400000
C      -46.73730000     -30.18290000     -70.33250000
C      -46.79950000     -30.92430000     -69.17540000
H      -45.86730000     -31.86010000     -67.51120000
H      -43.43640000     -30.43220000     -70.74430000
H      -47.55500000     -29.51590000     -70.77000000
H      -47.75270000     -30.92580000     -68.64660000
C      -45.40360000     -29.19570000     -72.14980000
H      -44.39310000     -28.84070000     -72.37720000
H      -46.07990000     -28.30110000     -72.07970000
C      -43.10550000     -31.71180000     -68.41690000
H      -42.31950000     -31.46240000     -69.08590000
H      -42.89100000     -31.21030000     -67.52180000
S      -45.96010000     -30.04290000     -73.68790000
S      -43.03640000     -33.48790000     -67.80640000
C      -45.29190000     -31.79330000     -73.58720000
H      -45.62330000     -32.20150000     -74.54950000
H      -44.16860000     -31.72260000     -73.63710000
C      -43.43620000     -34.60520000     -69.31260000
H      -43.20360000     -35.63130000     -68.99430000
H      -42.79970000     -34.33840000     -70.19080000
C      -44.84110000     -34.49990000     -69.76760000
H      -45.45960000     -34.63060000     -68.91180000
H      -45.05530000     -33.43220000     -70.13290000
C      -45.93270000     -32.71670000     -72.49220000
H      -46.86790000     -32.23450000     -72.12600000
H      -45.17350000     -32.74180000     -71.60950000
C      -46.21890000     -34.12040000     -72.88590000
C      -46.79060000     -34.49510000     -74.13540000
C      -45.70710000     -35.31220000     -72.15360000
H      -47.20770000     -33.80330000     -74.88580000
C      -45.93050000     -36.48690000     -72.88530000
C      -45.19060000     -35.52490000     -70.81570000
C      -44.88720000     -36.85540000     -70.60300000
S      -46.77380000     -36.27780000     -74.40530000
S      -45.40610000     -37.84740000     -71.90210000
H      -44.28710000     -37.37150000     -69.84700000
