40
Properties=species:S:1:pos:R:3 #=T CELL(abcABC):=T 1.889726e+02=T 90.00000=T Traj:=T positionsangstrom=T Step:=T 0=T Bead:=T pbc="F F F"
C      -45.51630000     -30.62510000     -67.95450000
C      -44.38690000     -31.05530000     -68.68840000
C      -44.21210000     -30.64820000     -69.99640000
C      -45.17610000     -29.89560000     -70.66820000
C      -46.40280000     -29.60790000     -69.98210000
C      -46.49200000     -29.98810000     -68.67700000
H      -45.65510000     -30.91830000     -66.92030000
H      -43.26940000     -30.99450000     -70.49880000
H      -47.17610000     -28.99170000     -70.47320000
H      -47.35550000     -29.68590000     -68.10090000
C      -44.94830000     -29.36240000     -72.11340000
H      -43.95300000     -29.61490000     -72.45670000
H      -45.02220000     -28.30260000     -72.07160000
C      -43.30010000     -31.90550000     -68.03530000
H      -42.37390000     -31.79950000     -68.59240000
H      -43.06580000     -31.59230000     -67.01180000
S      -46.06600000     -29.99970000     -73.49000000
S      -43.92420000     -33.63410000     -67.75370000
C      -45.50170000     -31.76670000     -73.47120000
H      -45.53500000     -32.13980000     -74.48680000
H      -44.50890000     -31.73270000     -73.18540000
C      -43.96540000     -34.28170000     -69.49720000
H      -43.26680000     -35.12660000     -69.48180000
H      -43.55460000     -33.54070000     -70.18700000
C      -45.36110000     -34.86470000     -69.77340000
H      -45.59100000     -35.58740000     -68.95860000
H      -46.11250000     -34.09780000     -69.79760000
C      -46.32950000     -32.77550000     -72.56460000
H      -47.37280000     -32.56620000     -72.87060000
H      -46.13410000     -32.62710000     -71.52220000
C      -45.99520000     -34.23010000     -73.07670000
C      -46.12290000     -34.50960000     -74.38420000
C      -45.68690000     -35.48500000     -72.35310000
H      -46.60280000     -33.84310000     -75.16810000
C      -45.57690000     -36.60050000     -73.14880000
C      -45.42830000     -35.83090000     -70.97420000
C      -45.37440000     -37.20940000     -70.77190000
S      -45.91130000     -36.27260000     -74.77310000
S      -45.33860000     -38.08040000     -72.26470000
H      -45.65730000     -37.69420000     -69.83850000
