40
Properties=species:S:1:pos:R:3 #=T CELL(abcABC):=T 1.889726e+02=T 90.00000=T Traj:=T positionsangstrom=T Step:=T 0=T Bead:=T pbc="F F F"
C      -45.52470000     -31.54500000     -68.53110000
C      -44.26630000     -31.27080000     -69.15400000
C      -44.31960000     -30.52490000     -70.29310000
C      -45.50960000     -29.99110000     -70.84930000
C      -46.72720000     -30.28230000     -70.24350000
C      -46.73630000     -31.06230000     -69.07290000
H      -45.59320000     -32.27590000     -67.66030000
H      -43.36540000     -30.17480000     -70.80180000
H      -47.69550000     -30.16040000     -70.79080000
H      -47.70730000     -31.46550000     -68.73060000
C      -45.32110000     -29.11010000     -72.04880000
H      -44.24290000     -28.99740000     -72.19360000
H      -45.94160000     -28.21430000     -71.89410000
C      -42.98760000     -31.75980000     -68.50170000
H      -42.12160000     -31.78220000     -69.25260000
H      -42.76030000     -31.02710000     -67.61460000
S      -46.03120000     -29.97210000     -73.60180000
S      -43.10000000     -33.46460000     -67.85580000
C      -45.19900000     -31.71110000     -73.56390000
H      -45.05930000     -32.07140000     -74.57430000
H      -44.25830000     -31.69690000     -73.09900000
C      -43.38250000     -34.30210000     -69.40990000
H      -42.84240000     -35.26360000     -69.30480000
H      -42.84900000     -33.76760000     -70.19030000
C      -44.82670000     -34.56340000     -69.76990000
H      -45.32340000     -34.86930000     -68.91290000
H      -45.38620000     -33.54990000     -70.01370000
C      -46.05980000     -32.62750000     -72.74220000
H      -47.02840000     -32.31740000     -72.99370000
H      -45.99250000     -32.56380000     -71.64160000
C      -46.00160000     -34.10630000     -73.02520000
C      -46.69400000     -34.56080000     -74.19230000
C      -45.65210000     -35.27810000     -72.16130000
H      -47.18690000     -33.87810000     -74.88290000
C      -45.91880000     -36.47660000     -72.83010000
C      -45.09920000     -35.55050000     -70.84470000
C      -44.97040000     -36.87420000     -70.47360000
S      -46.90890000     -36.29160000     -74.29520000
S      -45.48820000     -37.88500000     -71.85980000
H      -44.59750000     -37.28370000     -69.55490000
