40
Properties=species:S:1:pos:R:3 #=T CELL(abcABC):=T 1.889726e+02=T 90.00000=T Traj:=T positionsangstrom=T Step:=T 0=T Bead:=T pbc="F F F"
C      -48.93860000     -31.74620000     -69.20880000
C      -47.81210000     -31.25690000     -69.98490000
C      -46.53220000     -31.14250000     -69.49600000
C      -46.32470000     -31.66810000     -68.19590000
C      -47.38370000     -32.21810000     -67.46660000
C      -48.70040000     -32.18590000     -67.91080000
H      -49.88270000     -31.59350000     -69.71350000
H      -45.73610000     -30.75260000     -70.12780000
H      -47.16930000     -32.61870000     -66.48760000
H      -49.47080000     -32.59540000     -67.19740000
C      -44.95520000     -31.60790000     -67.51930000
H      -44.90210000     -32.17500000     -66.63440000
H      -44.91600000     -30.56200000     -67.25060000
C      -48.17280000     -30.67130000     -71.30310000
H      -49.05380000     -31.15030000     -71.75260000
H      -48.48930000     -29.54010000     -71.21340000
S      -43.48900000     -31.87880000     -68.58500000
S      -46.78430000     -30.62350000     -72.55400000
C      -43.74590000     -33.50640000     -69.41050000
H      -43.09610000     -34.26500000     -68.98830000
H      -44.74580000     -33.76040000     -69.13190000
C      -46.58440000     -32.39880000     -73.09010000
H      -47.28680000     -32.63330000     -73.82920000
H      -46.77750000     -33.00150000     -72.14100000
C      -45.12580000     -32.62920000     -73.63080000
H      -45.00370000     -32.04910000     -74.54240000
H      -44.39390000     -32.24530000     -72.91820000
C      -43.62500000     -33.37900000     -70.86210000
H      -42.67880000     -32.80330000     -71.07520000
H      -44.42690000     -32.63070000     -71.22570000
C      -43.69070000     -34.70690000     -71.61770000
C      -43.01100000     -35.82950000     -71.15090000
C      -44.13220000     -34.91730000     -72.94640000
H      -42.54990000     -35.80470000     -70.23590000
C      -44.07930000     -36.25390000     -73.34070000
C      -44.84700000     -34.12100000     -73.90540000
C      -45.14090000     -34.78690000     -75.08490000
S      -43.16360000     -37.23910000     -72.22140000
S      -44.72880000     -36.48290000     -74.96110000
H      -45.72260000     -34.50500000     -75.94780000
