40
Properties=species:S:1:pos:R:3 #=T CELL(abcABC):=T 1.889726e+02=T 90.00000=T Traj:=T positionsangstrom=T Step:=T 0=T Bead:=T pbc="F F F"
C      -45.41470000     -31.18230000     -68.15340000
C      -44.17340000     -31.07330000     -68.79650000
C      -44.10760000     -30.35360000     -69.98330000
C      -45.24510000     -29.85330000     -70.63690000
C      -46.45420000     -30.08860000     -69.95130000
C      -46.55510000     -30.69990000     -68.73540000
H      -45.40630000     -31.76910000     -67.20200000
H      -43.19540000     -30.33410000     -70.62910000
H      -47.43490000     -29.75620000     -70.37280000
H      -47.50900000     -30.79930000     -68.24840000
C      -45.01990000     -29.38750000     -72.09500000
H      -44.01150000     -29.44800000     -72.25180000
H      -45.19020000     -28.29870000     -72.24430000
C      -42.95270000     -31.68580000     -68.20030000
H      -42.09170000     -31.29260000     -68.64410000
H      -42.73430000     -31.44260000     -67.23820000
S      -45.95820000     -30.11040000     -73.40900000
S      -42.97820000     -33.62510000     -68.35500000
C      -45.53490000     -31.86390000     -73.40940000
H      -45.36240000     -32.23340000     -74.42470000
H      -44.63890000     -31.92480000     -72.79460000
C      -43.68990000     -33.98600000     -69.97100000
H      -43.17800000     -34.94280000     -70.14250000
H      -43.33400000     -33.26280000     -70.67560000
C      -45.22970000     -34.17170000     -70.03650000
H      -45.50730000     -34.44660000     -68.94230000
H      -45.74360000     -33.33370000     -70.46360000
C      -46.61560000     -32.79880000     -72.82070000
H      -47.58980000     -32.47130000     -73.15650000
H      -46.78770000     -32.53260000     -71.71130000
C      -46.38390000     -34.26360000     -73.06560000
C      -46.53750000     -34.73560000     -74.39240000
C      -46.03690000     -35.29630000     -72.19270000
H      -46.86940000     -34.16980000     -75.22890000
C      -46.03300000     -36.58640000     -72.78530000
C      -45.58630000     -35.47450000     -70.83090000
C      -45.26000000     -36.74350000     -70.53200000
S      -46.33860000     -36.54710000     -74.50940000
S      -45.59170000     -37.89060000     -71.76470000
H      -44.94820000     -37.20470000     -69.53300000
