40
Properties=species:S:1:pos:R:3 #=T CELL(abcABC):=T 1.889726e+02=T 90.00000=T Traj:=T positionsangstrom=T Step:=T 0=T Bead:=T pbc="F F F"
C      -49.21310000     -32.62100000     -69.73950000
C      -48.31970000     -31.61840000     -70.25860000
C      -47.27220000     -31.18510000     -69.39300000
C      -47.01960000     -31.80490000     -68.13720000
C      -47.93850000     -32.79810000     -67.67670000
C      -49.08560000     -33.06360000     -68.42710000
H      -50.07410000     -32.92230000     -70.26870000
H      -46.63820000     -30.46340000     -69.72750000
H      -47.88140000     -33.21660000     -66.68360000
H      -49.72350000     -33.87230000     -68.05940000
C      -45.74310000     -31.66600000     -67.43580000
H      -45.60600000     -32.49520000     -66.74290000
H      -45.77390000     -30.80130000     -66.82990000
C      -48.41590000     -31.00620000     -71.67650000
H      -49.01950000     -31.69720000     -72.33350000
H      -48.93000000     -30.01080000     -71.60520000
S      -44.21180000     -31.66890000     -68.46490000
S      -46.80010000     -30.81170000     -72.52320000
C      -44.38840000     -33.17290000     -69.57810000
H      -44.57510000     -33.99210000     -68.85050000
H      -45.28720000     -33.03510000     -70.17680000
C      -46.28330000     -32.48320000     -72.78150000
H      -47.01610000     -32.97850000     -73.31180000
H      -46.31450000     -33.02730000     -71.86360000
C      -44.96910000     -32.38760000     -73.46960000
H      -45.05120000     -31.74720000     -74.29620000
H      -44.14930000     -32.01200000     -72.85360000
C      -43.09600000     -33.35710000     -70.50000000
H      -42.33550000     -33.49360000     -69.81230000
H      -43.01360000     -32.38910000     -71.05380000
C      -43.20480000     -34.51380000     -71.40650000
C      -42.67320000     -35.69190000     -71.02560000
C      -43.72900000     -34.65720000     -72.82640000
H      -42.09970000     -35.85490000     -70.03550000
C      -43.45230000     -35.93220000     -73.30220000
C      -44.50400000     -33.81790000     -73.80360000
C      -44.76310000     -34.49250000     -74.96740000
S      -42.61210000     -37.02840000     -72.26730000
S      -43.98700000     -36.13910000     -74.96460000
H      -45.34100000     -34.18500000     -75.79850000
