40
Properties=species:S:1:pos:R:3 #=T CELL(abcABC):=T 1.889726e+02=T 90.00000=T Traj:=T positionsangstrom=T Step:=T 0=T Bead:=T pbc="F F F"
C      -45.45350000     -31.37570000     -68.28490000
C      -44.19560000     -31.32550000     -68.91820000
C      -44.18450000     -30.71080000     -70.18300000
C      -45.28100000     -30.07560000     -70.77520000
C      -46.48910000     -30.15270000     -70.03830000
C      -46.57760000     -30.87010000     -68.91450000
H      -45.58140000     -31.81280000     -67.28740000
H      -43.21700000     -30.52860000     -70.68190000
H      -47.37270000     -29.78220000     -70.56670000
H      -47.49220000     -30.95650000     -68.36320000
C      -45.27380000     -29.15830000     -71.93530000
H      -44.28190000     -28.93710000     -72.35100000
H      -45.92490000     -28.29290000     -71.78320000
C      -43.03770000     -31.85120000     -68.17730000
H      -42.12380000     -31.26920000     -68.66010000
H      -43.01820000     -31.67990000     -67.00950000
S      -46.02090000     -30.05570000     -73.43690000
S      -42.86980000     -33.66030000     -68.20570000
C      -45.41540000     -31.81810000     -73.30060000
H      -45.04920000     -32.15410000     -74.28750000
H      -44.50710000     -31.85340000     -72.67080000
C      -43.57270000     -34.09370000     -69.89170000
H      -43.01360000     -34.90320000     -70.45710000
H      -43.31110000     -33.18680000     -70.45020000
C      -45.13100000     -34.25550000     -69.90200000
H      -45.60190000     -34.45990000     -68.92760000
H      -45.44430000     -33.25570000     -70.11680000
C      -46.58460000     -32.74250000     -72.81100000
H      -47.46910000     -32.46000000     -73.38820000
H      -46.81350000     -32.72830000     -71.78160000
C      -46.30020000     -34.18180000     -73.14640000
C      -46.64870000     -34.70930000     -74.41800000
C      -45.90160000     -35.23350000     -72.27500000
H      -47.11390000     -34.12340000     -75.22450000
C      -46.00990000     -36.54310000     -72.79840000
C      -45.46070000     -35.28900000     -70.87600000
C      -45.30640000     -36.53480000     -70.41390000
S      -46.45380000     -36.43370000     -74.53930000
S      -45.50220000     -37.78560000     -71.69530000
H      -44.90850000     -36.78410000     -69.40530000
