40
Properties=species:S:1:pos:R:3 #=T CELL(abcABC):=T 1.889726e+02=T 90.00000=T Traj:=T positionsangstrom=T Step:=T 0=T Bead:=T pbc="F F F"
C      -48.71100000     -31.63490000     -69.22060000
C      -47.65510000     -31.15640000     -69.96900000
C      -46.34160000     -31.05880000     -69.45260000
C      -46.10410000     -31.64370000     -68.19390000
C      -47.16060000     -32.11980000     -67.42560000
C      -48.47850000     -32.14390000     -67.92020000
H      -49.62510000     -31.66350000     -69.74410000
H      -45.55730000     -30.61480000     -70.01640000
H      -46.98600000     -32.45820000     -66.40950000
H      -49.22410000     -32.43310000     -67.24310000
C      -44.77400000     -31.58470000     -67.55290000
H      -44.78820000     -32.34880000     -66.70580000
H      -44.65360000     -30.60410000     -66.99390000
C      -47.98370000     -30.62810000     -71.34620000
H      -48.85150000     -31.12040000     -71.75420000
H      -48.28790000     -29.64260000     -71.11700000
S      -43.34910000     -31.81150000     -68.64780000
S      -46.74760000     -30.50830000     -72.64340000
C      -43.53450000     -33.55140000     -69.29570000
H      -42.56300000     -34.07550000     -69.23140000
H      -44.27410000     -34.04170000     -68.62960000
C      -46.59630000     -32.34150000     -72.97520000
H      -47.51050000     -32.80060000     -73.46990000
H      -46.53930000     -32.86300000     -72.06680000
C      -45.33440000     -32.67080000     -73.83650000
H      -45.46840000     -32.43130000     -74.84380000
H      -44.47490000     -32.14260000     -73.40580000
C      -43.89370000     -33.49930000     -70.78130000
H      -43.20030000     -32.84910000     -71.22060000
H      -44.91880000     -33.07360000     -70.97880000
C      -43.79240000     -34.80880000     -71.55180000
C      -43.14050000     -35.99050000     -71.18240000
C      -44.35700000     -34.98530000     -72.87110000
H      -42.80740000     -36.04860000     -70.23420000
C      -44.18350000     -36.29190000     -73.34020000
C      -45.08350000     -34.13330000     -73.84820000
C      -45.46100000     -34.88090000     -74.94730000
S      -43.26310000     -37.28780000     -72.30620000
S      -44.90660000     -36.54640000     -74.89680000
H      -45.95180000     -34.54450000     -75.79050000
