40
Properties=species:S:1:pos:R:3 #=T CELL(abcABC):=T 1.889726e+02=T 90.00000=T Traj:=T positionsangstrom=T Step:=T 0=T Bead:=T pbc="F F F"
C      -48.61410000     -31.65040000     -69.14070000
C      -47.62780000     -31.03290000     -69.84480000
C      -46.26750000     -31.04270000     -69.39340000
C      -45.94700000     -31.60090000     -68.15050000
C      -47.02540000     -31.98070000     -67.32000000
C      -48.30260000     -32.19000000     -67.88760000
H      -49.61110000     -31.75900000     -69.63290000
H      -45.49010000     -30.63150000     -70.07200000
H      -46.82100000     -32.33940000     -66.35950000
H      -49.03040000     -32.69750000     -67.28500000
C      -44.55630000     -31.58730000     -67.61130000
H      -44.55480000     -32.28550000     -66.81950000
H      -44.29510000     -30.62640000     -67.25780000
C      -47.91220000     -30.28260000     -71.15200000
H      -48.92720000     -30.55430000     -71.60070000
H      -47.87950000     -29.18610000     -70.88540000
S      -43.08050000     -31.83480000     -68.70550000
S      -46.66770000     -30.54460000     -72.59730000
C      -43.29940000     -33.46630000     -69.50590000
H      -42.33710000     -33.95820000     -69.54230000
H      -43.87200000     -34.11730000     -68.86100000
C      -46.72690000     -32.40510000     -72.87060000
H      -47.64850000     -32.63780000     -73.39110000
H      -46.76750000     -32.93850000     -71.89390000
C      -45.48480000     -32.78510000     -73.75600000
H      -45.63000000     -32.30480000     -74.81240000
H      -44.54210000     -32.33910000     -73.42860000
C      -43.97900000     -33.43230000     -70.89590000
H      -43.42460000     -32.67660000     -71.61290000
H      -44.99080000     -33.09870000     -70.81370000
C      -43.95040000     -34.77170000     -71.65440000
C      -43.35920000     -35.91150000     -71.11010000
C      -44.51300000     -35.06420000     -72.94550000
H      -42.93290000     -36.01190000     -70.09050000
C      -44.37400000     -36.33410000     -73.36310000
C      -45.19240000     -34.23630000     -73.89160000
C      -45.58970000     -34.95460000     -74.99990000
S      -43.43530000     -37.32200000     -72.27340000
S      -45.05600000     -36.63230000     -74.98870000
H      -46.15360000     -34.58220000     -75.83780000
