40
Properties=species:S:1:pos:R:3 #=T CELL(abcABC):=T 1.889726e+02=T 90.00000=T Traj:=T positionsangstrom=T Step:=T 0=T Bead:=T pbc="F F F"
C      -49.37050000     -32.68580000     -69.89820000
C      -48.42080000     -31.89010000     -70.44770000
C      -47.26490000     -31.72300000     -69.66580000
C      -47.09020000     -32.44040000     -68.42400000
C      -48.07910000     -33.30410000     -67.96420000
C      -49.19780000     -33.44230000     -68.75410000
H      -50.26700000     -32.93770000     -70.56170000
H      -46.48910000     -30.91600000     -69.80200000
H      -48.11600000     -33.80170000     -66.98220000
H      -50.12150000     -33.97140000     -68.44970000
C      -45.87280000     -32.00220000     -67.54410000
H      -45.64520000     -32.67000000     -66.72930000
H      -46.03250000     -31.00080000     -67.13170000
C      -48.72270000     -31.10530000     -71.67210000
H      -49.53770000     -31.45500000     -72.30770000
H      -49.02500000     -30.05790000     -71.40770000
S      -44.23970000     -31.66420000     -68.45760000
S      -47.21320000     -30.79870000     -72.72130000
C      -44.10680000     -33.28430000     -69.37330000
H      -43.93720000     -34.18250000     -68.76040000
H      -45.01560000     -33.41360000     -69.93060000
C      -46.33850000     -32.44950000     -72.99600000
H      -46.95650000     -33.01320000     -73.69460000
H      -46.35910000     -32.87770000     -72.02540000
C      -44.87520000     -32.19360000     -73.37210000
H      -44.77760000     -31.47290000     -74.23210000
H      -44.31380000     -31.70600000     -72.56150000
C      -42.97870000     -33.11300000     -70.39280000
H      -42.02530000     -32.94070000     -69.85390000
H      -43.06490000     -32.22290000     -70.92710000
C      -42.97200000     -34.25760000     -71.35220000
C      -42.41050000     -35.41900000     -70.94840000
C      -43.53800000     -34.40700000     -72.67940000
H      -41.79040000     -35.49520000     -69.94300000
C      -43.27880000     -35.71730000     -73.11890000
C      -44.26500000     -33.60580000     -73.62130000
C      -44.69500000     -34.31290000     -74.76390000
S      -42.47380000     -36.82080000     -72.06730000
S      -43.91510000     -35.96380000     -74.73520000
H      -45.08730000     -33.89350000     -75.64850000
