40
Properties=species:S:1:pos:R:3 #=T CELL(abcABC):=T 1.889726e+02=T 90.00000=T Traj:=T positionsangstrom=T Step:=T 0=T Bead:=T pbc="F F F"
C      -43.91350000     -31.08140000     -69.00660000
C      -42.97860000     -31.12000000     -70.07080000
C      -43.34540000     -30.62990000     -71.31730000
C      -44.62240000     -29.98830000     -71.55440000
C      -45.50230000     -29.99330000     -70.44570000
C      -45.13380000     -30.53070000     -69.19060000
H      -43.73120000     -31.59210000     -68.07460000
H      -42.55030000     -30.74640000     -72.04930000
H      -46.55490000     -29.59360000     -70.60900000
H      -45.86570000     -30.62320000     -68.38860000
C      -44.99730000     -29.48700000     -72.89710000
H      -44.19720000     -29.55940000     -73.64210000
H      -45.36730000     -28.47890000     -72.81080000
C      -41.66130000     -31.83830000     -69.75920000
H      -41.05520000     -31.88400000     -70.64540000
H      -41.24990000     -31.26550000     -68.89530000
S      -46.49240000     -30.36190000     -73.65970000
S      -41.95380000     -33.46470000     -69.02040000
C      -46.08430000     -32.16070000     -73.34050000
H      -46.20700000     -32.76500000     -74.29950000
H      -45.01980000     -32.30010000     -73.13970000
C      -43.01180000     -34.24160000     -70.40000000
H      -42.82400000     -35.32880000     -70.50890000
H      -42.59710000     -33.79120000     -71.33480000
C      -44.50280000     -33.96580000     -70.17600000
H      -44.63750000     -33.73270000     -69.10420000
H      -44.78760000     -33.03270000     -70.62890000
C      -46.99730000     -32.74270000     -72.17700000
H      -47.93830000     -32.20080000     -72.07720000
H      -46.45580000     -32.56210000     -71.19940000
C      -47.23290000     -34.26580000     -72.34230000
C      -48.34080000     -34.76760000     -72.97940000
C      -46.47690000     -35.25940000     -71.56670000
H      -48.97500000     -34.27950000     -73.75860000
C      -47.00390000     -36.54040000     -71.80190000
C      -45.28810000     -35.20760000     -70.73260000
C      -44.98970000     -36.49670000     -70.32120000
S      -48.33170000     -36.53660000     -72.92450000
S      -46.09650000     -37.75690000     -70.91190000
H      -44.21660000     -36.74620000     -69.55310000
