40
Properties=species:S:1:pos:R:3 #=T CELL(abcABC):=T 1.889726e+02=T 90.00000=T Traj:=T positionsangstrom=T Step:=T 0=T Bead:=T pbc="F F F"
C      -49.37540000     -32.98090000     -70.09930000
C      -48.53200000     -31.95700000     -70.55530000
C      -47.45140000     -31.68810000     -69.70030000
C      -47.17320000     -32.39240000     -68.52090000
C      -48.09400000     -33.31530000     -68.03280000
C      -49.16470000     -33.64940000     -68.86150000
H      -50.40110000     -33.16820000     -70.47940000
H      -46.70870000     -30.96500000     -70.04590000
H      -47.87910000     -33.88920000     -67.11010000
H      -49.84640000     -34.36520000     -68.52020000
C      -45.96010000     -32.26650000     -67.64100000
H      -45.82810000     -33.25630000     -67.14160000
H      -46.10560000     -31.61640000     -66.76630000
C      -48.79230000     -31.27000000     -71.91370000
H      -49.38310000     -31.96290000     -72.45420000
H      -49.39570000     -30.30720000     -71.79110000
S      -44.38610000     -31.63780000     -68.28590000
S      -47.26810000     -30.83420000     -72.82850000
C      -43.87330000     -33.11450000     -69.24000000
H      -43.32760000     -33.74560000     -68.46650000
H      -44.79780000     -33.57240000     -69.47880000
C      -46.50650000     -32.48290000     -72.91150000
H      -46.81870000     -33.00500000     -73.83760000
H      -46.94490000     -33.17640000     -72.15100000
C      -44.95410000     -32.27680000     -72.93710000
H      -44.84050000     -31.50620000     -73.66790000
H      -44.71770000     -31.98800000     -72.00990000
C      -42.86790000     -32.94500000     -70.44140000
H      -41.85710000     -32.83430000     -69.95660000
H      -43.09460000     -32.02150000     -71.06530000
C      -42.84120000     -34.22460000     -71.29160000
C      -42.22350000     -35.43200000     -70.98950000
C      -43.51000000     -34.42820000     -72.55770000
H      -41.46940000     -35.34940000     -70.16070000
C      -43.20490000     -35.62960000     -73.15800000
C      -44.31100000     -33.61580000     -73.41550000
C      -44.55840000     -34.20720000     -74.65860000
S      -42.38070000     -36.72200000     -72.14200000
S      -43.83970000     -35.78030000     -74.76000000
H      -45.09390000     -33.76120000     -75.47450000
