40
Properties=species:S:1:pos:R:3 #=T CELL(abcABC):=T 1.889726e+02=T 90.00000=T Traj:=T positionsangstrom=T Step:=T 0=T Bead:=T pbc="F F F"
C      -49.06900000     -33.51400000     -70.66700000
C      -48.46640000     -32.26260000     -70.83440000
C      -47.53730000     -31.86820000     -69.86540000
C      -47.31550000     -32.63570000     -68.70990000
C      -47.90050000     -33.90670000     -68.58710000
C      -48.77110000     -34.36250000     -69.58950000
H      -49.67330000     -33.83780000     -71.46800000
H      -47.12330000     -30.85490000     -69.81980000
H      -47.50380000     -34.47730000     -67.76340000
H      -49.14070000     -35.37370000     -69.54270000
C      -46.42260000     -31.98460000     -67.63650000
H      -46.21610000     -32.62210000     -66.80300000
H      -46.82510000     -31.06990000     -67.37920000
C      -48.85270000     -31.35430000     -71.88900000
H      -49.71030000     -31.83950000     -72.41760000
H      -49.29790000     -30.47940000     -71.44460000
S      -44.80340000     -31.48910000     -68.40660000
S      -47.42300000     -30.74250000     -72.88820000
C      -44.02430000     -33.05470000     -68.99600000
H      -43.48740000     -33.44810000     -68.20620000
H      -44.89160000     -33.65830000     -69.30540000
C      -46.65440000     -32.32680000     -73.49070000
H      -46.46860000     -32.15520000     -74.58930000
H      -47.31400000     -33.14450000     -73.29070000
C      -45.35760000     -32.64940000     -72.70720000
H      -44.66850000     -31.74190000     -72.63890000
H      -45.65780000     -32.78640000     -71.69240000
C      -43.11570000     -32.74430000     -70.18780000
H      -42.16540000     -32.38230000     -69.77650000
H      -43.55800000     -31.87540000     -70.70930000
C      -42.76240000     -33.89760000     -71.11000000
C      -41.70880000     -34.72600000     -70.81720000
C      -43.50690000     -34.33600000     -72.40240000
H      -40.94840000     -34.61640000     -70.09370000
C      -42.99580000     -35.52230000     -72.90060000
C      -44.66750000     -33.85640000     -73.13980000
C      -44.87810000     -34.62140000     -74.24560000
S      -41.52320000     -36.02220000     -72.01080000
S      -43.83650000     -36.05350000     -74.35570000
H      -45.73780000     -34.52430000     -74.80320000
