40
Properties=species:S:1:pos:R:3 #=T CELL(abcABC):=T 1.889726e+02=T 90.00000=T Traj:=T positionsangstrom=T Step:=T 0=T Bead:=T pbc="F F F"
C      -49.05190000     -33.45940000     -70.54540000
C      -48.58210000     -32.14820000     -70.69580000
C      -47.82140000     -31.63460000     -69.65840000
C      -47.37900000     -32.46610000     -68.63470000
C      -47.97170000     -33.68910000     -68.43700000
C      -48.81340000     -34.23750000     -69.42690000
H      -49.69470000     -33.85910000     -71.39290000
H      -47.31130000     -30.64300000     -69.82980000
H      -47.70420000     -34.17900000     -67.49300000
H      -49.14710000     -35.24580000     -69.23340000
C      -46.26330000     -32.04020000     -67.63630000
H      -45.96970000     -32.77580000     -66.91310000
H      -46.60310000     -31.23580000     -67.01810000
C      -48.89090000     -31.33250000     -71.90630000
H      -49.52430000     -31.87920000     -72.57120000
H      -49.43240000     -30.42680000     -71.58770000
S      -44.73830000     -31.46970000     -68.40550000
S      -47.32460000     -30.71280000     -72.72240000
C      -44.22860000     -33.02890000     -69.28600000
H      -43.94960000     -33.77280000     -68.52780000
H      -45.09050000     -33.48800000     -69.66090000
C      -46.60830000     -32.30460000     -73.37180000
H      -46.69770000     -32.26720000     -74.45560000
H      -47.33640000     -33.12570000     -73.12530000
C      -45.24040000     -32.54360000     -72.80310000
H      -44.54440000     -31.82510000     -73.04450000
H      -45.39890000     -32.56880000     -71.70740000
C      -43.09200000     -32.84610000     -70.26580000
H      -42.21240000     -32.54410000     -69.67850000
H      -43.37810000     -32.02120000     -70.93970000
C      -42.75510000     -34.12930000     -71.08330000
C      -41.72110000     -35.02640000     -70.88910000
C      -43.42010000     -34.37660000     -72.35300000
H      -40.96190000     -35.22660000     -70.08360000
C      -43.03250000     -35.56360000     -72.95450000
C      -44.55590000     -33.85510000     -73.12420000
C      -44.83500000     -34.63380000     -74.24500000
S      -41.61670000     -36.24980000     -72.22350000
S      -43.80500000     -35.97030000     -74.46620000
H      -45.61180000     -34.44180000     -74.98220000
