40
Properties=species:S:1:pos:R:3 #=T CELL(abcABC):=T 1.889726e+02=T 90.00000=T Traj:=T positionsangstrom=T Step:=T 0=T Bead:=T pbc="F F F"
C      -44.05920000     -37.12450000     -72.37910000
C      -43.67070000     -35.82450000     -72.87260000
C      -44.57400000     -35.12880000     -73.70530000
C      -45.86400000     -35.60160000     -74.03350000
C      -46.24270000     -36.84550000     -73.47410000
C      -45.28530000     -37.60890000     -72.71040000
H      -43.33310000     -37.86060000     -71.95430000
H      -44.29930000     -34.13080000     -74.01340000
H      -47.17160000     -37.39860000     -73.79660000
H      -45.50110000     -38.66160000     -72.39610000
C      -46.76100000     -34.83020000     -74.91040000
H      -47.83200000     -35.03350000     -74.70130000
H      -46.63210000     -35.16570000     -75.99490000
C      -42.28320000     -35.26670000     -72.57070000
H      -41.40550000     -35.79410000     -72.95360000
H      -42.12650000     -34.26140000     -72.88050000
S      -46.51900000     -32.96830000     -74.88750000
S      -41.93090000     -35.13400000     -70.79000000
C      -47.32080000     -32.63840000     -73.28530000
H      -48.14510000     -31.87240000     -73.28590000
H      -47.82620000     -33.56960000     -73.04500000
C      -43.30710000     -33.97120000     -70.18620000
H      -43.22090000     -34.09140000     -69.12000000
H      -44.23510000     -34.50360000     -70.39390000
C      -43.36730000     -32.52200000     -70.63050000
H      -42.43540000     -31.98400000     -70.54520000
H      -43.52590000     -32.54500000     -71.72600000
C      -46.34240000     -32.34900000     -72.23450000
H      -45.75650000     -31.54290000     -72.68170000
H      -45.65570000     -33.26680000     -72.25630000
C      -46.80670000     -31.94160000     -70.79860000
C      -48.12370000     -31.79750000     -70.40910000
C      -45.78420000     -31.74900000     -69.80480000
H      -48.96770000     -31.92180000     -71.06450000
C      -46.35880000     -31.21220000     -68.64180000
C      -44.30780000     -31.75310000     -69.70920000
C      -43.92860000     -31.14370000     -68.57550000
S      -48.15810000     -31.15560000     -68.68370000
S      -45.19210000     -30.67800000     -67.45240000
H      -42.88010000     -30.95180000     -68.20710000
