40
Properties=species:S:1:pos:R:3 #=T CELL(abcABC):=T 1.889726e+02=T 90.00000=T Traj:=T positionsangstrom=T Step:=T 0=T Bead:=T pbc="F F F"
C      -48.68860000     -34.09180000     -71.53260000
C      -48.69990000     -32.68640000     -71.34740000
C      -48.20280000     -32.13460000     -70.12210000
C      -47.66730000     -32.99210000     -69.13130000
C      -47.57910000     -34.39540000     -69.39430000
C      -48.15190000     -34.92940000     -70.54040000
H      -49.19310000     -34.55780000     -72.37080000
H      -48.07340000     -31.05770000     -69.95400000
H      -47.21140000     -35.07520000     -68.62050000
H      -48.00900000     -35.96550000     -70.80550000
C      -47.05470000     -32.34100000     -67.94220000
H      -47.00540000     -33.04670000     -67.06760000
H      -47.64980000     -31.45350000     -67.59640000
C      -49.14370000     -31.78650000     -72.42460000
H      -49.55730000     -32.28970000     -73.31820000
H      -49.91320000     -31.04020000     -72.10670000
S      -45.45180000     -31.60910000     -68.37720000
S      -47.61160000     -30.89370000     -73.15720000
C      -44.40910000     -32.97440000     -69.13720000
H      -44.04800000     -33.69420000     -68.32480000
H      -45.00700000     -33.59210000     -69.81580000
C      -46.52670000     -32.35330000     -73.46070000
H      -46.09380000     -32.08350000     -74.43010000
H      -47.15320000     -33.17220000     -73.47330000
C      -45.31760000     -32.35680000     -72.48570000
H      -44.82370000     -31.33740000     -72.66090000
H      -45.68010000     -32.38030000     -71.43270000
C      -43.22030000     -32.40820000     -69.94420000
H      -42.41270000     -31.87320000     -69.43980000
H      -43.68640000     -31.66250000     -70.66680000
C      -42.58580000     -33.50340000     -70.75430000
C      -41.44430000     -34.19520000     -70.43030000
C      -43.22930000     -33.99740000     -71.99110000
H      -40.71730000     -33.97200000     -69.66610000
C      -42.65210000     -35.20000000     -72.43450000
C      -44.38390000     -33.58740000     -72.75610000
C      -44.56910000     -34.45320000     -73.77720000
S      -41.22960000     -35.65900000     -71.44460000
S      -43.43880000     -35.80000000     -73.85070000
H      -45.23980000     -34.53360000     -74.63800000
