40
Properties=species:S:1:pos:R:3 #=T CELL(abcABC):=T 1.889726e+02=T 90.00000=T Traj:=T positionsangstrom=T Step:=T 0=T Bead:=T pbc="F F F"
C      -43.98040000     -36.88070000     -72.36840000
C      -43.63830000     -35.68330000     -72.92970000
C      -44.46540000     -35.05130000     -73.85600000
C      -45.75180000     -35.59240000     -74.08270000
C      -46.19000000     -36.74600000     -73.39380000
C      -45.24880000     -37.36380000     -72.56030000
H      -43.40080000     -37.34950000     -71.60670000
H      -44.09480000     -34.13580000     -74.28180000
H      -47.21410000     -37.15780000     -73.43150000
H      -45.56080000     -38.24820000     -71.98030000
C      -46.64740000     -34.92490000     -75.09380000
H      -47.65430000     -35.27070000     -74.91590000
H      -46.39350000     -35.19430000     -76.09030000
C      -42.20340000     -35.05660000     -72.68530000
H      -41.43460000     -35.70020000     -73.11280000
H      -42.18080000     -34.13920000     -73.36990000
S      -46.73370000     -33.08790000     -74.92720000
S      -41.90670000     -34.87010000     -70.91610000
C      -47.34040000     -32.64650000     -73.22730000
H      -47.78580000     -31.66940000     -73.30590000
H      -47.99660000     -33.46460000     -72.89050000
C      -43.47610000     -34.24420000     -70.24270000
H      -43.49700000     -34.65050000     -69.20990000
H      -44.32070000     -34.60020000     -70.87080000
C      -43.46230000     -32.77560000     -70.40120000
H      -42.43390000     -32.54310000     -70.26500000
H      -43.69700000     -32.49360000     -71.49320000
C      -46.20100000     -32.58560000     -72.27310000
H      -45.48250000     -31.86230000     -72.50860000
H      -45.68180000     -33.54070000     -72.20340000
C      -46.70210000     -32.12460000     -70.76000000
C      -48.02990000     -31.82350000     -70.39270000
C      -45.74450000     -31.85600000     -69.65650000
H      -48.86310000     -32.07180000     -71.06070000
C      -46.36950000     -31.23860000     -68.59610000
C      -44.30440000     -32.03810000     -69.43130000
C      -43.93680000     -31.43510000     -68.26590000
S      -48.15370000     -31.06200000     -68.83790000
S      -45.27590000     -30.60570000     -67.41700000
H      -42.95160000     -31.29460000     -67.88170000
