40
Properties=species:S:1:pos:R:3 #=T CELL(abcABC):=T 1.889726e+02=T 90.00000=T Traj:=T positionsangstrom=T Step:=T 0=T Bead:=T pbc="F F F"
C      -48.56030000     -34.05970000     -71.30410000
C      -48.64120000     -32.65080000     -71.20500000
C      -48.15640000     -32.04930000     -70.02840000
C      -47.48440000     -32.85590000     -69.03160000
C      -47.44930000     -34.28520000     -69.13730000
C      -48.04230000     -34.81210000     -70.24070000
H      -48.94780000     -34.52850000     -72.18550000
H      -48.12100000     -30.98750000     -70.02660000
H      -47.09310000     -34.93710000     -68.31390000
H      -47.77710000     -35.87140000     -70.50370000
C      -46.75060000     -32.25730000     -67.83460000
H      -46.54660000     -32.83850000     -66.99480000
H      -47.38450000     -31.47420000     -67.48970000
C      -49.11230000     -31.80800000     -72.34510000
H      -49.46320000     -32.39780000     -73.15610000
H      -49.83190000     -31.00280000     -72.16020000
S      -45.10160000     -31.42800000     -68.23550000
S      -47.62840000     -30.79820000     -73.10860000
C      -44.28080000     -32.85680000     -69.01050000
H      -43.73270000     -33.42790000     -68.23460000
H      -44.93440000     -33.51750000     -69.46470000
C      -46.46840000     -32.15080000     -73.59490000
H      -45.96470000     -31.85770000     -74.51340000
H      -47.07380000     -33.09460000     -73.73280000
C      -45.44210000     -32.61050000     -72.53100000
H      -44.91660000     -31.71070000     -72.33490000
H      -46.09410000     -32.78190000     -71.60790000
C      -43.19720000     -32.39960000     -70.02910000
H      -42.29700000     -32.07410000     -69.51300000
H      -43.53990000     -31.50450000     -70.60080000
C      -42.84500000     -33.61780000     -70.94650000
C      -41.72280000     -34.35700000     -70.57620000
C      -43.44370000     -34.12450000     -72.15070000
H      -41.12070000     -34.20420000     -69.71280000
C      -42.85430000     -35.31780000     -72.51280000
C      -44.61080000     -33.76280000     -72.98020000
C      -44.75150000     -34.65710000     -74.00570000
S      -41.44880000     -35.75880000     -71.54750000
S      -43.48130000     -35.88060000     -74.02590000
H      -45.49590000     -34.69640000     -74.74470000
