40
Properties=species:S:1:pos:R:3 #=T CELL(abcABC):=T 1.889726e+02=T 90.00000=T Traj:=T positionsangstrom=T Step:=T 0=T Bead:=T pbc="F F F"
C      -49.25510000     -32.32800000     -70.41830000
C      -48.17630000     -31.52290000     -70.19320000
C      -47.15360000     -31.95620000     -69.24310000
C      -47.30010000     -33.11020000     -68.49360000
C      -48.43170000     -33.92920000     -68.73880000
C      -49.40040000     -33.54190000     -69.67410000
H      -49.90990000     -32.14380000     -71.30870000
H      -46.19740000     -31.42420000     -69.00680000
H      -48.49590000     -34.79630000     -68.07710000
H      -50.15660000     -34.27150000     -69.80700000
C      -46.23860000     -33.56270000     -67.47400000
H      -46.74150000     -33.64680000     -66.47720000
H      -45.45440000     -32.86210000     -67.30050000
C      -47.90790000     -30.22480000     -70.94490000
H      -48.89910000     -29.74330000     -71.04750000
H      -47.13710000     -29.61470000     -70.44550000
S      -45.50020000     -35.14960000     -67.90590000
S      -47.48160000     -30.54310000     -72.73610000
C      -44.96330000     -34.95080000     -69.71540000
H      -44.58890000     -35.85760000     -69.96000000
H      -45.75350000     -34.79690000     -70.34990000
C      -45.87340000     -31.46680000     -72.54160000
H      -45.37460000     -31.08790000     -71.67650000
H      -45.23780000     -31.23610000     -73.35960000
C      -46.00530000     -33.02130000     -72.45100000
H      -45.90490000     -33.28370000     -71.41440000
H      -46.91320000     -33.41940000     -72.85000000
C      -43.85850000     -33.86130000     -69.93470000
H      -43.02430000     -33.90430000     -69.15450000
H      -44.33490000     -32.91320000     -69.82160000
C      -43.16550000     -33.99430000     -71.24560000
C      -41.77830000     -34.23920000     -71.17680000
C      -43.59240000     -34.00890000     -72.56730000
H      -41.22420000     -34.19150000     -70.31140000
C      -42.51970000     -34.36800000     -73.44660000
C      -44.82320000     -33.67110000     -73.21460000
C      -44.73470000     -34.01150000     -74.55190000
S      -41.00950000     -34.63890000     -72.69160000
S      -43.14250000     -34.59990000     -75.11110000
H      -45.46820000     -33.93020000     -75.31230000
