40
Properties=species:S:1:pos:R:3 #=T CELL(abcABC):=T 1.889726e+02=T 90.00000=T Traj:=T positionsangstrom=T Step:=T 0=T Bead:=T pbc="F F F"
C      -48.44120000     -33.97780000     -71.16860000
C      -48.57580000     -32.53260000     -71.05050000
C      -48.10470000     -31.95710000     -69.87080000
C      -47.52440000     -32.75400000     -68.88720000
C      -47.38730000     -34.18790000     -69.00970000
C      -47.94070000     -34.75050000     -70.18660000
H      -48.81040000     -34.39250000     -72.12070000
H      -48.24600000     -30.86330000     -69.89990000
H      -46.88400000     -34.82770000     -68.27220000
H      -48.01660000     -35.82310000     -70.35270000
C      -46.83050000     -32.10510000     -67.73610000
H      -46.75190000     -32.75040000     -66.79780000
H      -47.49210000     -31.23660000     -67.47310000
C      -49.04960000     -31.66900000     -72.12600000
H      -49.58740000     -32.20620000     -72.92210000
H      -49.66730000     -30.80580000     -71.78760000
S      -45.13380000     -31.52570000     -68.23520000
S      -47.64660000     -30.90850000     -73.05670000
C      -44.37770000     -32.96690000     -69.09660000
H      -44.02550000     -33.62640000     -68.26660000
H      -45.16720000     -33.50820000     -69.67110000
C      -46.57720000     -32.30520000     -73.60880000
H      -46.22840000     -32.14230000     -74.65540000
H      -47.26390000     -33.15770000     -73.61710000
C      -45.38970000     -32.46070000     -72.68120000
H      -44.71020000     -31.66190000     -72.76470000
H      -45.72010000     -32.56460000     -71.62850000
C      -43.26170000     -32.51170000     -70.11280000
H      -42.41310000     -32.11530000     -69.57070000
H      -43.65720000     -31.68080000     -70.71070000
C      -42.77070000     -33.69450000     -71.02030000
C      -41.65200000     -34.45110000     -70.63150000
C      -43.39290000     -34.13570000     -72.19640000
H      -41.01850000     -34.12140000     -69.78320000
C      -42.82460000     -35.31570000     -72.67180000
C      -44.52320000     -33.66780000     -73.01100000
C      -44.78180000     -34.58400000     -73.99050000
S      -41.33970000     -35.78840000     -71.76760000
S      -43.66160000     -35.89320000     -74.02360000
H      -45.66650000     -34.68950000     -74.59230000
