40
Properties=species:S:1:pos:R:3 #=T CELL(abcABC):=T 1.889726e+02=T 90.00000=T Traj:=T positionsangstrom=T Step:=T 0=T Bead:=T pbc="F F F"
C      -48.64960000     -34.11500000     -71.61640000
C      -48.79960000     -32.72900000     -71.31710000
C      -48.33000000     -32.18140000     -70.10050000
C      -47.73250000     -33.01130000     -69.14740000
C      -47.67820000     -34.41290000     -69.42030000
C      -48.13520000     -34.91680000     -70.60250000
H      -48.87050000     -34.50890000     -72.57560000
H      -48.57620000     -31.18310000     -69.87820000
H      -47.21710000     -34.97840000     -68.61490000
H      -47.98270000     -36.01170000     -70.80370000
C      -47.02840000     -32.45770000     -67.93520000
H      -46.86330000     -33.24830000     -67.20290000
H      -47.72070000     -31.76740000     -67.45480000
C      -49.12340000     -31.78690000     -72.43840000
H      -49.67220000     -32.23040000     -73.25430000
H      -49.66890000     -30.94590000     -72.00880000
S      -45.44790000     -31.52660000     -68.40280000
S      -47.60540000     -31.00290000     -73.03750000
C      -44.45610000     -32.88520000     -69.07560000
H      -44.22470000     -33.48610000     -68.20940000
H      -45.12730000     -33.45160000     -69.75270000
C      -46.52480000     -32.34430000     -73.52990000
H      -46.26510000     -32.29400000     -74.60670000
H      -47.03440000     -33.34890000     -73.44100000
C      -45.26800000     -32.41890000     -72.65320000
H      -44.62470000     -31.61460000     -72.65680000
H      -45.61240000     -32.51250000     -71.56680000
C      -43.20650000     -32.37380000     -69.85400000
H      -42.47400000     -32.15160000     -69.13580000
H      -43.40670000     -31.41630000     -70.39210000
C      -42.70120000     -33.49790000     -70.68800000
C      -41.64590000     -34.24080000     -70.31090000
C      -43.22090000     -33.91690000     -71.99600000
H      -41.16790000     -34.15090000     -69.28920000
C      -42.64110000     -35.08660000     -72.42070000
C      -44.37840000     -33.66130000     -72.88090000
C      -44.57210000     -34.55360000     -73.84070000
S      -41.21800000     -35.51750000     -71.45660000
S      -43.23750000     -35.80470000     -73.87810000
H      -45.32460000     -34.56560000     -74.64570000
