40
Properties=species:S:1:pos:R:3 #=T CELL(abcABC):=T 1.889726e+02=T 90.00000=T Traj:=T positionsangstrom=T Step:=T 0=T Bead:=T pbc="F F F"
C      -48.70320000     -34.12450000     -71.50290000
C      -48.65080000     -32.74230000     -71.35040000
C      -48.04820000     -32.17090000     -70.15040000
C      -47.49480000     -33.01590000     -69.15100000
C      -47.66160000     -34.39040000     -69.27770000
C      -48.21920000     -34.92190000     -70.47750000
H      -49.02400000     -34.62310000     -72.47080000
H      -47.94620000     -31.06870000     -69.89030000
H      -47.27820000     -35.10390000     -68.60060000
H      -48.40040000     -35.97270000     -70.50650000
C      -46.85510000     -32.39130000     -67.93020000
H      -46.56060000     -33.23060000     -67.34500000
H      -47.35620000     -31.74180000     -67.28210000
C      -49.07780000     -31.86190000     -72.48900000
H      -49.46640000     -32.48850000     -73.29920000
H      -49.83340000     -31.16440000     -72.23360000
S      -45.30220000     -31.46450000     -68.38700000
S      -47.64640000     -30.88520000     -73.17560000
C      -44.35340000     -32.89740000     -68.96520000
H      -43.98410000     -33.36000000     -68.08370000
H      -44.98040000     -33.61580000     -69.49260000
C      -46.38500000     -32.13380000     -73.57500000
H      -45.87390000     -31.92180000     -74.58240000
H      -46.88240000     -33.13420000     -73.70680000
C      -45.30410000     -32.32400000     -72.48510000
H      -44.75100000     -31.39680000     -72.40830000
H      -45.78450000     -32.50430000     -71.59200000
C      -43.12020000     -32.52250000     -69.81330000
H      -42.33450000     -32.33350000     -69.05750000
H      -43.23390000     -31.65000000     -70.40040000
C      -42.71140000     -33.61600000     -70.71970000
C      -41.60280000     -34.36920000     -70.36480000
C      -43.47800000     -34.12010000     -71.90440000
H      -40.86970000     -34.21760000     -69.67630000
C      -42.71660000     -35.13280000     -72.50010000
C      -44.52850000     -33.61830000     -72.74400000
C      -44.66430000     -34.42790000     -73.82450000
S      -41.31740000     -35.62270000     -71.55940000
S      -43.49530000     -35.80820000     -73.88480000
H      -45.39500000     -34.32400000     -74.66410000
