40
Properties=species:S:1:pos:R:3 #=T CELL(abcABC):=T 1.889726e+02=T 90.00000=T Traj:=T positionsangstrom=T Step:=T 0=T Bead:=T pbc="F F F"
C      -48.81150000     -34.52530000     -71.82890000
C      -48.67650000     -33.13100000     -71.83360000
C      -48.30890000     -32.47490000     -70.68450000
C      -48.13590000     -33.17600000     -69.52030000
C      -48.42340000     -34.52290000     -69.45810000
C      -48.66000000     -35.24390000     -70.68380000
H      -49.07380000     -35.04640000     -72.76590000
H      -48.12100000     -31.39880000     -70.72090000
H      -48.20510000     -35.08060000     -68.51020000
H      -48.78570000     -36.29930000     -70.66920000
C      -47.82270000     -32.49900000     -68.21770000
H      -47.73240000     -33.22010000     -67.39440000
H      -48.60740000     -31.79070000     -68.06750000
C      -48.93460000     -32.39830000     -73.10370000
H      -49.41080000     -33.05830000     -73.88030000
H      -49.73710000     -31.69600000     -73.03580000
S      -46.26900000     -31.55990000     -68.46630000
S      -47.42580000     -31.46560000     -73.70860000
C      -45.10930000     -32.93570000     -68.88120000
H      -44.93320000     -33.55210000     -67.94490000
H      -45.58180000     -33.64880000     -69.62820000
C      -46.17980000     -32.82920000     -73.82450000
H      -45.77440000     -32.78760000     -74.83170000
H      -46.73340000     -33.71710000     -73.72280000
C      -45.18060000     -32.66030000     -72.66280000
H      -44.80410000     -31.64620000     -72.57590000
H      -45.71390000     -32.88740000     -71.74520000
C      -43.76330000     -32.32210000     -69.44110000
H      -43.16990000     -31.94760000     -68.60100000
H      -44.05510000     -31.41000000     -69.98980000
C      -42.88590000     -33.30930000     -70.26210000
C      -41.81480000     -33.93670000     -69.64520000
C      -43.02680000     -33.76270000     -71.64830000
H      -41.43710000     -33.92370000     -68.60610000
C      -42.02390000     -34.57130000     -72.04340000
C      -43.96330000     -33.52330000     -72.71560000
C      -43.73320000     -34.27830000     -73.77790000
S      -40.95900000     -35.04690000     -70.71350000
S      -42.20620000     -35.10180000     -73.67690000
H      -44.35670000     -34.31220000     -74.64920000
