40
Properties=species:S:1:pos:R:3 #=T CELL(abcABC):=T 1.889726e+02=T 90.00000=T Traj:=T positionsangstrom=T Step:=T 0=T Bead:=T pbc="F F F"
C      -48.92620000     -32.50680000     -70.66790000
C      -47.92010000     -31.69140000     -70.22250000
C      -47.09420000     -32.15220000     -69.19250000
C      -47.23550000     -33.37990000     -68.57100000
C      -48.25970000     -34.19780000     -69.06200000
C      -49.11520000     -33.71920000     -70.07160000
H      -49.59750000     -32.11570000     -71.40940000
H      -46.40450000     -31.31180000     -68.83710000
H      -48.34890000     -35.22130000     -68.65490000
H      -49.93120000     -34.35720000     -70.37630000
C      -46.39390000     -33.74350000     -67.41960000
H      -47.01960000     -34.09610000     -66.58390000
H      -45.97410000     -32.76090000     -67.15970000
C      -47.74280000     -30.33200000     -70.83840000
H      -48.60670000     -29.69620000     -70.59760000
H      -46.79210000     -29.86780000     -70.59120000
S      -45.12430000     -35.07730000     -67.69780000
S      -47.71960000     -30.50360000     -72.72900000
C      -44.84910000     -35.09770000     -69.47250000
H      -44.10530000     -35.84700000     -69.65890000
H      -45.73860000     -35.39970000     -70.02540000
C      -46.09380000     -31.27740000     -72.87040000
H      -45.33450000     -30.72360000     -72.26450000
H      -45.67910000     -31.12710000     -73.91210000
C      -46.10060000     -32.76340000     -72.66470000
H      -46.15260000     -33.00050000     -71.61150000
H      -46.97490000     -33.08730000     -73.26830000
C      -44.14530000     -33.82670000     -69.95920000
H      -43.43900000     -33.63440000     -69.10060000
H      -44.76510000     -33.00510000     -70.10540000
C      -43.25620000     -34.06920000     -71.16250000
C      -42.01050000     -34.66040000     -71.01610000
C      -43.66400000     -33.86330000     -72.52590000
H      -41.52360000     -35.08440000     -70.06750000
C      -42.70080000     -34.42700000     -73.36220000
C      -44.80950000     -33.40550000     -73.28700000
C      -44.60450000     -33.41260000     -74.63530000
S      -41.23400000     -34.84810000     -72.55820000
S      -43.12220000     -34.20320000     -75.03480000
H      -45.37180000     -33.29030000     -75.34620000
