40
Properties=species:S:1:pos:R:3 #=T CELL(abcABC):=T 1.889726e+02=T 90.00000=T Traj:=T positionsangstrom=T Step:=T 0=T Bead:=T pbc="F F F"
C      -48.70200000     -34.65240000     -71.98180000
C      -48.85630000     -33.26220000     -71.96150000
C      -48.55930000     -32.62100000     -70.77340000
C      -48.28860000     -33.30790000     -69.57460000
C      -48.08930000     -34.65110000     -69.62960000
C      -48.36270000     -35.34920000     -70.82910000
H      -48.89690000     -35.11700000     -72.93790000
H      -48.71780000     -31.55670000     -70.75170000
H      -47.85780000     -35.12230000     -68.75010000
H      -48.16860000     -36.44400000     -70.90170000
C      -48.07370000     -32.57400000     -68.31220000
H      -48.10400000     -33.21790000     -67.48990000
H      -48.77520000     -31.76610000     -68.11690000
C      -49.01020000     -32.62620000     -73.32140000
H      -49.22140000     -33.40780000     -74.02530000
H      -49.91610000     -31.95310000     -73.30100000
S      -46.32440000     -31.69980000     -68.38780000
S      -47.51660000     -31.56800000     -73.60100000
C      -45.16600000     -32.91210000     -69.01580000
H      -44.82160000     -33.60310000     -68.20460000
H      -45.57160000     -33.49080000     -69.88460000
C      -46.03080000     -32.64150000     -73.91730000
H      -45.61260000     -32.36550000     -74.86570000
H      -46.32050000     -33.72620000     -74.06220000
C      -45.04820000     -32.43100000     -72.82360000
H      -44.58590000     -31.46160000     -72.81100000
H      -45.54170000     -32.51880000     -71.83980000
C      -43.90840000     -32.19350000     -69.46360000
H      -43.47080000     -31.69870000     -68.65630000
H      -44.37810000     -31.47590000     -70.09540000
C      -42.97590000     -33.16610000     -70.22320000
C      -41.82740000     -33.68030000     -69.56160000
C      -43.10840000     -33.72570000     -71.57720000
H      -41.69050000     -33.44770000     -68.51610000
C      -42.05650000     -34.55710000     -71.87740000
C      -43.90760000     -33.48470000     -72.77760000
C      -43.45090000     -34.14850000     -73.90510000
S      -40.99810000     -34.86560000     -70.48420000
S      -42.05570000     -35.11660000     -73.52060000
H      -43.86130000     -34.02220000     -74.90300000
