40
Properties=species:S:1:pos:R:3 #=T CELL(abcABC):=T 1.889726e+02=T 90.00000=T Traj:=T positionsangstrom=T Step:=T 0=T Bead:=T pbc="F F F"
C      -49.14940000     -34.51680000     -71.78000000
C      -48.78440000     -33.15890000     -71.79610000
C      -48.22770000     -32.50250000     -70.69160000
C      -48.09260000     -33.15610000     -69.44180000
C      -48.47760000     -34.58570000     -69.45620000
C      -48.87250000     -35.22620000     -70.58690000
H      -49.47430000     -34.97350000     -72.68160000
H      -48.09240000     -31.44880000     -70.71810000
H      -48.32970000     -35.18500000     -68.60190000
H      -49.06520000     -36.31660000     -70.59910000
C      -47.60350000     -32.57670000     -68.17820000
H      -47.50340000     -33.27380000     -67.32090000
H      -48.34000000     -31.77290000     -67.91580000
C      -48.98930000     -32.28690000     -73.03620000
H      -49.33170000     -32.89990000     -73.85160000
H      -49.70840000     -31.52270000     -72.77290000
S      -46.03910000     -31.62390000     -68.33400000
S      -47.47230000     -31.27390000     -73.59410000
C      -44.92940000     -33.02200000     -68.78170000
H      -44.70800000     -33.66910000     -67.91140000
H      -45.54840000     -33.63260000     -69.47240000
C      -46.14060000     -32.52730000     -73.79420000
H      -45.53620000     -32.20750000     -74.57630000
H      -46.65520000     -33.45450000     -74.07450000
C      -45.36740000     -32.66400000     -72.49150000
H      -45.04480000     -31.73320000     -72.07170000
H      -45.95080000     -33.17780000     -71.73490000
C      -43.66150000     -32.44440000     -69.47540000
H      -43.12120000     -31.97710000     -68.62060000
H      -43.97580000     -31.63050000     -70.16800000
C      -42.82650000     -33.39900000     -70.29090000
C      -41.71800000     -34.04890000     -69.75760000
C      -43.05530000     -33.67580000     -71.70530000
H      -41.39370000     -33.94040000     -68.77560000
C      -42.09170000     -34.63730000     -72.14430000
C      -44.06790000     -33.43820000     -72.73400000
C      -43.73560000     -34.11880000     -73.86660000
S      -40.95590000     -35.18270000     -70.94840000
S      -42.27320000     -35.14670000     -73.79390000
H      -44.24790000     -34.28690000     -74.79820000
