40
Properties=species:S:1:pos:R:3 #=T CELL(abcABC):=T 1.889726e+02=T 90.00000=T Traj:=T positionsangstrom=T Step:=T 0=T Bead:=T pbc="F F F"
C      -48.79780000     -34.68620000     -71.90310000
C      -48.78320000     -33.30070000     -71.96160000
C      -48.54050000     -32.64490000     -70.75210000
C      -48.23520000     -33.26180000     -69.55610000
C      -48.25790000     -34.67150000     -69.52350000
C      -48.61650000     -35.40690000     -70.67990000
H      -48.98600000     -35.29760000     -72.77210000
H      -48.51680000     -31.59050000     -70.75540000
H      -48.10780000     -35.09650000     -68.57110000
H      -48.64780000     -36.53470000     -70.75730000
C      -47.85330000     -32.46230000     -68.31210000
H      -47.68300000     -33.11890000     -67.42530000
H      -48.67070000     -31.74890000     -67.97540000
C      -49.04370000     -32.41180000     -73.20000000
H      -49.35000000     -32.99700000     -74.10100000
H      -49.63030000     -31.55410000     -72.95830000
S      -46.31400000     -31.52230000     -68.41360000
S      -47.50850000     -31.38860000     -73.73400000
C      -45.17590000     -32.86370000     -69.08110000
H      -45.08350000     -33.52110000     -68.23070000
H      -45.63640000     -33.44290000     -69.83330000
C      -46.17470000     -32.73820000     -73.63300000
H      -45.71490000     -32.71330000     -74.58530000
H      -46.72600000     -33.71290000     -73.44270000
C      -45.10380000     -32.61490000     -72.57000000
H      -44.87070000     -31.49740000     -72.49590000
H      -45.60130000     -32.78610000     -71.64850000
C      -43.88960000     -32.30050000     -69.63520000
H      -43.28070000     -31.74270000     -68.83740000
H      -44.05960000     -31.56610000     -70.44370000
C      -42.95370000     -33.37110000     -70.19560000
C      -41.83160000     -33.93880000     -69.55480000
C      -43.02670000     -33.73700000     -71.60800000
H      -41.54230000     -33.65430000     -68.50960000
C      -41.98820000     -34.57410000     -71.97280000
C      -43.91720000     -33.49670000     -72.71220000
C      -43.51230000     -34.18190000     -73.82730000
S      -40.85390000     -34.94330000     -70.66790000
S      -42.09400000     -35.13400000     -73.55870000
H      -44.02970000     -34.05970000     -74.76170000
