40
Properties=species:S:1:pos:R:3 #=T CELL(abcABC):=T 1.889726e+02=T 90.00000=T Traj:=T positionsangstrom=T Step:=T 0=T Bead:=T pbc="F F F"
C      -48.08990000     -34.78800000     -72.56310000
C      -48.47290000     -33.51120000     -72.23090000
C      -48.50910000     -33.11570000     -70.86500000
C      -48.20970000     -34.10270000     -69.88300000
C      -47.89300000     -35.45040000     -70.24910000
C      -47.86840000     -35.81110000     -71.58770000
H      -47.94350000     -35.08930000     -73.61080000
H      -48.65660000     -32.07390000     -70.52020000
H      -47.57950000     -36.14880000     -69.45620000
H      -47.57640000     -36.80720000     -71.95710000
C      -48.06730000     -33.66980000     -68.45430000
H      -47.86080000     -34.53730000     -67.78960000
H      -48.96350000     -33.29610000     -67.97670000
C      -48.88220000     -32.54200000     -73.35900000
H      -48.95100000     -33.11640000     -74.30120000
H      -49.87450000     -32.09450000     -73.15640000
S      -46.70650000     -32.29990000     -68.37870000
S      -47.61880000     -31.20450000     -73.52240000
C      -45.21920000     -33.30950000     -68.83580000
H      -44.87200000     -33.83630000     -67.91450000
H      -45.53540000     -34.08130000     -69.63220000
C      -46.08060000     -32.19300000     -73.70470000
H      -45.39530000     -31.59360000     -74.25830000
H      -46.14820000     -33.17320000     -74.23930000
C      -45.29960000     -32.35770000     -72.40050000
H      -45.08990000     -31.40210000     -72.00380000
H      -45.96510000     -32.78750000     -71.61320000
C      -44.16140000     -32.29090000     -69.27280000
H      -43.85640000     -31.81170000     -68.35710000
H      -44.60570000     -31.47300000     -69.82250000
C      -43.01790000     -32.92000000     -70.04030000
C      -41.84700000     -33.26100000     -69.47210000
C      -43.11140000     -33.25240000     -71.46490000
H      -41.50980000     -32.84880000     -68.49050000
C      -42.00350000     -34.04390000     -71.77870000
C      -44.09300000     -33.26420000     -72.48120000
C      -43.72260000     -34.02680000     -73.55740000
S      -40.74120000     -34.09400000     -70.51700000
S      -42.18690000     -34.81100000     -73.33650000
H      -44.13050000     -34.01440000     -74.58010000
