40
Properties=species:S:1:pos:R:3 #=T CELL(abcABC):=T 1.889726e+02=T 90.00000=T Traj:=T positionsangstrom=T Step:=T 0=T Bead:=T pbc="F F F"
C      -48.08120000     -34.71680000     -72.13790000
C      -48.28850000     -33.33770000     -72.08860000
C      -48.25150000     -32.82450000     -70.78360000
C      -48.13400000     -33.57590000     -69.58000000
C      -47.99210000     -34.94040000     -69.76440000
C      -47.99700000     -35.51560000     -70.99960000
H      -48.04900000     -35.15420000     -73.14800000
H      -48.46630000     -31.75910000     -70.71070000
H      -47.86870000     -35.56610000     -68.79990000
H      -47.90010000     -36.58820000     -71.05020000
C      -48.00960000     -33.02500000     -68.21300000
H      -47.81770000     -33.85660000     -67.58800000
H      -48.81610000     -32.55560000     -67.78260000
C      -48.74760000     -32.52010000     -73.22380000
H      -49.03310000     -33.23080000     -74.00910000
H      -49.60660000     -31.94280000     -72.92200000
S      -46.50350000     -31.99190000     -68.03280000
S      -47.51350000     -31.34840000     -73.93090000
C      -45.31700000     -32.98620000     -68.95680000
H      -44.84960000     -33.88710000     -68.52290000
H      -45.89530000     -33.35880000     -69.84070000
C      -45.96370000     -32.37880000     -74.11220000
H      -45.37330000     -31.76040000     -74.87650000
H      -46.07170000     -33.38330000     -74.47450000
C      -45.11480000     -32.37560000     -72.79310000
H      -44.82050000     -31.26190000     -72.59790000
H      -45.73450000     -32.63090000     -71.95110000
C      -44.14940000     -32.12110000     -69.49940000
H      -43.84280000     -31.45590000     -68.68960000
H      -44.55440000     -31.49840000     -70.30080000
C      -43.17110000     -33.01390000     -70.17470000
C      -42.15450000     -33.66220000     -69.49580000
C      -43.19690000     -33.53950000     -71.54710000
H      -41.72160000     -33.36150000     -68.56370000
C      -42.14510000     -34.44970000     -71.81960000
C      -44.00800000     -33.30420000     -72.70580000
C      -43.58520000     -34.01260000     -73.78130000
S      -41.15320000     -34.75770000     -70.49130000
S      -42.17730000     -35.00450000     -73.46640000
H      -43.97440000     -34.07560000     -74.78630000
