40
Properties=species:S:1:pos:R:3 #=T CELL(abcABC):=T 1.889726e+02=T 90.00000=T Traj:=T positionsangstrom=T Step:=T 0=T Bead:=T pbc="F F F"
C      -48.41350000     -34.86830000     -72.74310000
C      -48.67300000     -33.59180000     -72.32080000
C      -48.52510000     -33.29980000     -70.94470000
C      -48.22580000     -34.28860000     -70.04690000
C      -48.11400000     -35.65160000     -70.49140000
C      -48.15500000     -35.92620000     -71.81320000
H      -48.56180000     -35.15290000     -73.77430000
H      -48.44900000     -32.24630000     -70.61380000
H      -47.84160000     -36.43610000     -69.76120000
H      -48.19430000     -36.98540000     -72.05520000
C      -48.13020000     -33.89560000     -68.59960000
H      -48.04560000     -34.81810000     -67.95490000
H      -49.17570000     -33.53570000     -68.38930000
C      -49.06020000     -32.51770000     -73.27830000
H      -49.34700000     -32.91920000     -74.25980000
H      -49.85580000     -31.86510000     -72.89980000
S      -46.91020000     -32.54390000     -68.24030000
S      -47.56330000     -31.40620000     -73.57910000
C      -45.32610000     -33.39160000     -68.62550000
H      -44.82170000     -33.55600000     -67.72860000
H      -45.46880000     -34.32810000     -69.21870000
C      -45.98880000     -32.53040000     -73.83480000
H      -45.34790000     -31.96060000     -74.61160000
H      -46.15450000     -33.46480000     -74.13460000
C      -45.21150000     -32.54270000     -72.45720000
H      -45.03990000     -31.49670000     -72.06130000
H      -45.83210000     -33.06640000     -71.74310000
C      -44.44720000     -32.32650000     -69.35150000
H      -44.29580000     -31.46250000     -68.72990000
H      -45.13180000     -31.86070000     -70.09630000
C      -43.17670000     -32.81560000     -69.97460000
C      -42.03720000     -33.07080000     -69.27050000
C      -42.99750000     -33.13530000     -71.39980000
H      -41.68380000     -32.73920000     -68.31470000
C      -41.77700000     -33.80660000     -71.65640000
C      -43.89590000     -33.18560000     -72.56140000
C      -43.25290000     -33.77180000     -73.66330000
S      -40.77670000     -33.89190000     -70.27440000
S      -41.60630000     -34.25860000     -73.30800000
H      -43.65470000     -33.69560000     -74.63740000
