40
Properties=species:S:1:pos:R:3 #=T CELL(abcABC):=T 1.889726e+02=T 90.00000=T Traj:=T positionsangstrom=T Step:=T 0=T Bead:=T pbc="F F F"
C      -48.01010000     -34.61870000     -72.45480000
C      -48.56190000     -33.32050000     -72.17000000
C      -48.55050000     -32.91190000     -70.82970000
C      -48.10090000     -33.71460000     -69.80360000
C      -47.75050000     -35.02320000     -70.12880000
C      -47.73050000     -35.47180000     -71.44690000
H      -48.04610000     -34.99320000     -73.47370000
H      -48.67680000     -31.84800000     -70.64860000
H      -47.62020000     -35.77320000     -69.40470000
H      -47.42730000     -36.48570000     -71.65840000
C      -47.98210000     -33.21770000     -68.36140000
H      -47.80130000     -34.00990000     -67.69120000
H      -48.85460000     -32.64590000     -68.19370000
C      -48.90210000     -32.51450000     -73.38130000
H      -48.98160000     -33.10960000     -74.23890000
H      -49.81710000     -31.91650000     -73.40430000
S      -46.60860000     -31.92180000     -68.13020000
S      -47.53880000     -31.29000000     -73.82220000
C      -45.15520000     -32.94940000     -68.53190000
H      -44.76260000     -33.45180000     -67.64800000
H      -45.53670000     -33.76640000     -69.12700000
C      -46.06970000     -32.39520000     -73.95950000
H      -45.59990000     -31.93100000     -74.85230000
H      -46.37200000     -33.48730000     -74.25580000
C      -45.26370000     -32.42850000     -72.62930000
H      -44.99800000     -31.39430000     -72.40210000
H      -45.97640000     -32.72140000     -71.77020000
C      -44.08710000     -32.17030000     -69.45280000
H      -43.54900000     -31.35150000     -68.85680000
H      -44.69270000     -31.50300000     -70.14960000
C      -43.10460000     -33.11680000     -70.06910000
C      -42.04360000     -33.64450000     -69.39850000
C      -43.19630000     -33.56380000     -71.43530000
H      -41.84450000     -33.44840000     -68.33770000
C      -42.11160000     -34.39080000     -71.79500000
C      -44.02560000     -33.35970000     -72.58370000
C      -43.67130000     -34.16240000     -73.64570000
S      -40.98500000     -34.62710000     -70.39870000
S      -42.20690000     -34.99530000     -73.41530000
H      -43.97840000     -33.98560000     -74.65560000
