40
Properties=species:S:1:pos:R:3 #=T CELL(abcABC):=T 1.889726e+02=T 90.00000=T Traj:=T positionsangstrom=T Step:=T 0=T Bead:=T pbc="F F F"
C      -48.04810000     -34.72160000     -72.23130000
C      -48.34870000     -33.36770000     -72.08410000
C      -48.40040000     -32.89760000     -70.75580000
C      -48.10890000     -33.68820000     -69.64560000
C      -47.80860000     -35.03310000     -69.87630000
C      -47.82310000     -35.55350000     -71.14410000
H      -48.01680000     -35.12790000     -73.26020000
H      -48.79590000     -31.89750000     -70.57720000
H      -47.49410000     -35.69900000     -69.01330000
H      -47.61220000     -36.58450000     -71.28350000
C      -48.10520000     -33.08930000     -68.25140000
H      -48.21720000     -33.86230000     -67.39730000
H      -49.01660000     -32.40970000     -68.07220000
C      -48.76580000     -32.43940000     -73.21380000
H      -49.50490000     -32.93590000     -73.89540000
H      -49.36180000     -31.67040000     -72.71040000
S      -46.62100000     -31.98420000     -68.11280000
S      -47.50770000     -31.31200000     -74.04590000
C      -45.19870000     -33.04430000     -68.74160000
H      -44.63420000     -33.48100000     -67.92580000
H      -45.62590000     -33.76930000     -69.44710000
C      -45.88380000     -32.25680000     -74.06210000
H      -45.26900000     -31.70160000     -74.67960000
H      -46.03940000     -33.22630000     -74.50530000
C      -45.23890000     -32.44360000     -72.64810000
H      -45.04460000     -31.61790000     -72.00090000
H      -45.91920000     -33.10520000     -72.14840000
C      -44.12810000     -32.04820000     -69.43520000
H      -43.61490000     -31.56370000     -68.65460000
H      -44.48390000     -31.26370000     -70.13150000
C      -43.10080000     -32.99270000     -70.12570000
C      -42.05140000     -33.58620000     -69.47820000
C      -43.19260000     -33.57030000     -71.49320000
H      -41.70350000     -33.42720000     -68.46240000
C      -42.20020000     -34.47330000     -71.82050000
C      -43.95690000     -33.23130000     -72.69630000
C      -43.61640000     -33.98040000     -73.77110000
S      -41.11390000     -34.71930000     -70.45620000
S      -42.23140000     -35.04050000     -73.43480000
H      -43.95500000     -34.06000000     -74.77680000
