40
Properties=species:S:1:pos:R:3 #=T CELL(abcABC):=T 1.889726e+02=T 90.00000=T Traj:=T positionsangstrom=T Step:=T 0=T Bead:=T pbc="F F F"
C      -41.37430000     -34.52380000     -69.59540000
C      -42.49940000     -33.86330000     -69.04750000
C      -42.84500000     -32.57520000     -69.57580000
C      -42.07470000     -31.98950000     -70.67580000
C      -40.96930000     -32.61160000     -71.11020000
C      -40.66350000     -33.90830000     -70.60320000
H      -41.13300000     -35.53990000     -69.29500000
H      -43.57290000     -31.88580000     -69.10210000
H      -40.46220000     -31.98180000     -71.87890000
H      -39.67730000     -34.38480000     -70.77880000
C      -42.44160000     -30.64360000     -71.12500000
H      -41.68290000     -29.84720000     -71.05650000
H      -43.22430000     -30.27050000     -70.48420000
C      -43.30590000     -34.36910000     -67.79440000
H      -42.57910000     -34.79070000     -67.10310000
H      -43.77090000     -33.53170000     -67.33710000
S      -43.04530000     -30.56130000     -72.87790000
S      -44.56140000     -35.71220000     -68.10080000
C      -44.86820000     -31.00500000     -72.77170000
H      -45.25490000     -30.57530000     -71.81830000
H      -45.29560000     -30.42400000     -73.61150000
C      -46.07080000     -34.92920000     -68.95540000
H      -46.33780000     -33.92780000     -68.56940000
H      -46.96230000     -35.45810000     -68.62110000
C      -45.95910000     -34.95620000     -70.45990000
H      -45.11890000     -34.36130000     -70.78390000
H      -45.80290000     -35.96300000     -70.71800000
C      -45.09900000     -32.46970000     -72.84030000
H      -44.73100000     -32.90840000     -71.96830000
H      -44.56180000     -32.83380000     -73.71050000
C      -46.58010000     -32.86090000     -72.98980000
C      -47.21140000     -32.27930000     -74.10870000
C      -47.46990000     -33.73440000     -72.28290000
H      -46.77070000     -31.51830000     -74.82170000
C      -48.73990000     -33.68990000     -72.76900000
C      -47.25910000     -34.56050000     -71.13800000
C      -48.39450000     -35.32420000     -70.93840000
S      -48.87040000     -32.79680000     -74.31850000
S      -49.76970000     -34.81280000     -71.98050000
H      -48.40160000     -36.19650000     -70.31090000
