40
Properties=species:S:1:pos:R:3 #=T CELL(abcABC):=T 1.889726e+02=T 90.00000=T Traj:=T positionsangstrom=T Step:=T 0=T Bead:=T pbc="F F F"
C      -43.93120000     -36.73500000     -72.72950000
C      -45.17840000     -36.79310000     -72.06780000
C      -45.11660000     -36.55450000     -70.68090000
C      -44.00000000     -36.33660000     -69.93550000
C      -42.78840000     -36.35960000     -70.64550000
C      -42.72940000     -36.63740000     -71.97350000
H      -43.92470000     -36.91470000     -73.79220000
H      -46.05520000     -36.77530000     -70.13700000
H      -41.91630000     -36.13160000     -70.06120000
H      -41.83740000     -36.50530000     -72.45350000
C      -43.99370000     -36.05500000     -68.43750000
H      -43.03080000     -35.79820000     -67.98340000
H      -44.37080000     -36.91550000     -67.85970000
C      -46.51310000     -36.90220000     -72.80460000
H      -46.27800000     -36.81120000     -73.96360000
H      -46.98660000     -37.91130000     -72.59910000
S      -45.15970000     -34.73780000     -67.98900000
S      -47.69380000     -35.60040000     -72.33130000
C      -44.44020000     -33.15430000     -68.79890000
H      -45.10310000     -32.33720000     -68.59250000
H      -43.48450000     -32.88370000     -68.26250000
C      -47.17830000     -34.06970000     -73.09290000
H      -47.65530000     -33.89330000     -74.06620000
H      -46.07180000     -34.08750000     -73.26110000
C      -47.55740000     -32.94600000     -72.08070000
H      -48.65360000     -32.86860000     -72.18510000
H      -47.29000000     -33.31530000     -71.11210000
C      -44.44090000     -33.23680000     -70.46370000
H      -45.26820000     -33.85450000     -70.76670000
H      -43.51220000     -33.81100000     -70.86660000
C      -44.48420000     -31.76770000     -70.89320000
C      -43.44560000     -30.87350000     -70.70660000
C      -45.56680000     -31.16230000     -71.67750000
H      -42.59020000     -31.07030000     -70.10730000
C      -45.30070000     -29.85990000     -72.01390000
C      -46.84140000     -31.62170000     -72.30570000
C      -47.33690000     -30.65330000     -73.12340000
S      -43.67590000     -29.29680000     -71.46380000
S      -46.55440000     -29.14380000     -73.06870000
H      -48.31750000     -30.76150000     -73.71220000
