40
Properties=species:S:1:pos:R:3 #=T CELL(abcABC):=T 1.889726e+02=T 90.00000=T Traj:=T positionsangstrom=T Step:=T 0=T Bead:=T pbc="F F F"
C      -48.11320000     -35.07990000     -73.13020000
C      -48.37980000     -33.71830000     -72.72740000
C      -48.36260000     -33.43760000     -71.32890000
C      -48.26360000     -34.40930000     -70.37330000
C      -48.06680000     -35.71860000     -70.75480000
C      -47.99430000     -36.05320000     -72.10810000
H      -48.28670000     -35.31980000     -74.16730000
H      -48.33830000     -32.40340000     -70.94790000
H      -47.84980000     -36.50250000     -70.00020000
H      -47.85770000     -37.10090000     -72.33880000
C      -48.42640000     -34.07160000     -68.90890000
H      -48.30950000     -34.99690000     -68.40560000
H      -49.39780000     -33.74230000     -68.56460000
C      -48.53830000     -32.62050000     -73.77080000
H      -48.34820000     -33.01750000     -74.77030000
H      -49.58860000     -32.29800000     -73.74540000
S      -47.17350000     -32.85660000     -68.22800000
S      -47.46060000     -31.16240000     -73.51210000
C      -45.69540000     -33.58200000     -69.07380000
H      -45.22070000     -34.43750000     -68.55170000
H      -45.97030000     -34.10080000     -69.97790000
C      -45.80580000     -31.95260000     -73.73870000
H      -45.30440000     -31.10370000     -74.27040000
H      -45.90210000     -32.77750000     -74.46650000
C      -45.08960000     -32.23080000     -72.45370000
H      -44.86710000     -31.21520000     -72.09920000
H      -45.68690000     -32.73340000     -71.79550000
C      -44.65900000     -32.46470000     -69.14840000
H      -44.45630000     -32.04140000     -68.12380000
H      -45.07160000     -31.69340000     -69.79330000
C      -43.34750000     -32.94600000     -69.77120000
C      -42.38830000     -33.36250000     -68.92490000
C      -43.05110000     -33.15020000     -71.19000000
H      -42.34350000     -33.40240000     -67.85900000
C      -41.76770000     -33.70210000     -71.35420000
C      -43.74060000     -32.87540000     -72.43350000
C      -43.04520000     -33.27130000     -73.52580000
S      -40.95230000     -34.03340000     -69.85560000
S      -41.54140000     -34.01910000     -73.06840000
H      -43.48240000     -33.27440000     -74.51060000
