40
Properties=species:S:1:pos:R:3 #=T CELL(abcABC):=T 1.889726e+02=T 90.00000=T Traj:=T positionsangstrom=T Step:=T 0=T Bead:=T pbc="F F F"
C      -47.90470000     -34.97240000     -73.30320000
C      -48.22210000     -33.67220000     -72.94990000
C      -48.46080000     -33.43660000     -71.58440000
C      -48.38940000     -34.45460000     -70.60010000
C      -47.85950000     -35.71190000     -70.98920000
C      -47.70280000     -35.97990000     -72.35520000
H      -47.81500000     -35.19280000     -74.40280000
H      -48.81380000     -32.46800000     -71.28910000
H      -47.75470000     -36.54890000     -70.26240000
H      -47.53510000     -36.96880000     -72.77000000
C      -48.67290000     -34.17450000     -69.16080000
H      -48.73770000     -34.90700000     -68.42420000
H      -49.52760000     -33.58530000     -69.11940000
C      -48.39850000     -32.55260000     -73.97870000
H      -48.16060000     -32.94020000     -74.99140000
H      -49.42260000     -32.17260000     -74.00000000
S      -47.40220000     -32.93110000     -68.46370000
S      -47.35880000     -31.06780000     -73.51530000
C      -45.83600000     -33.75610000     -68.86610000
H      -45.77970000     -34.58130000     -68.17680000
H      -45.95020000     -34.10950000     -69.90710000
C      -45.75050000     -31.84560000     -73.58390000
H      -45.15330000     -30.97830000     -73.90950000
H      -45.79400000     -32.54560000     -74.38330000
C      -45.28550000     -32.32300000     -72.14890000
H      -45.39050000     -31.41520000     -71.53200000
H      -46.02970000     -33.11930000     -71.87760000
C      -44.60530000     -32.85930000     -68.84360000
H      -44.29700000     -32.54960000     -67.83920000
H      -44.88010000     -31.88950000     -69.31360000
C      -43.29900000     -33.27440000     -69.55140000
C      -42.27000000     -33.84790000     -68.82930000
C      -43.12320000     -33.23740000     -70.94940000
H      -42.21810000     -33.82270000     -67.74520000
C      -41.85500000     -33.66360000     -71.26210000
C      -43.89870000     -32.88540000     -72.11350000
C      -43.15820000     -33.04710000     -73.29110000
S      -40.89100000     -34.16510000     -69.85520000
S      -41.47270000     -33.49860000     -72.96910000
H      -43.63640000     -32.89080000     -74.25690000
