40
Properties=species:S:1:pos:R:3 #=T CELL(abcABC):=T 1.889726e+02=T 90.00000=T Traj:=T positionsangstrom=T Step:=T 0=T Bead:=T pbc="F F F"
C      -47.78560000     -34.90970000     -73.41970000
C      -48.31540000     -33.65250000     -73.09350000
C      -48.61750000     -33.34420000     -71.78820000
C      -48.53220000     -34.27290000     -70.73270000
C      -47.95440000     -35.57090000     -71.09170000
C      -47.64160000     -35.87960000     -72.40850000
H      -47.38980000     -35.10490000     -74.44530000
H      -48.88990000     -32.34020000     -71.62490000
H      -47.78440000     -36.26080000     -70.25160000
H      -47.14910000     -36.82480000     -72.52290000
C      -48.80460000     -33.92120000     -69.26580000
H      -49.03320000     -34.94120000     -68.82110000
H      -49.81640000     -33.34690000     -69.30190000
C      -48.44120000     -32.60440000     -74.16970000
H      -48.03930000     -32.83630000     -75.13450000
H      -49.44510000     -32.18860000     -74.21590000
S      -47.38790000     -33.13340000     -68.32220000
S      -47.37470000     -31.12970000     -73.59550000
C      -45.82210000     -33.96510000     -68.95880000
H      -45.57030000     -34.90600000     -68.43160000
H      -46.01560000     -34.24120000     -69.97880000
C      -45.62310000     -31.85580000     -73.48260000
H      -44.93080000     -31.17640000     -74.01410000
H      -45.57900000     -32.82740000     -74.01990000
C      -45.26960000     -32.12440000     -71.98760000
H      -45.32760000     -31.24570000     -71.28080000
H      -45.97080000     -32.77000000     -71.56120000
C      -44.67150000     -32.98260000     -68.75340000
H      -44.60040000     -33.03800000     -67.66440000
H      -44.97320000     -31.94930000     -69.00000000
C      -43.37950000     -33.40760000     -69.46870000
C      -42.24100000     -33.78460000     -68.79550000
C      -43.13860000     -33.29360000     -70.91340000
H      -42.27320000     -34.03350000     -67.74320000
C      -41.85630000     -33.71110000     -71.22940000
C      -43.86230000     -32.81980000     -72.06990000
C      -42.97200000     -32.84090000     -73.17720000
S      -40.86730000     -34.11460000     -69.82110000
S      -41.43370000     -33.57170000     -72.89850000
H      -43.23290000     -32.50590000     -74.16150000
