40
Properties=species:S:1:pos:R:3 #=T CELL(abcABC):=T 1.889726e+02=T 90.00000=T Traj:=T positionsangstrom=T Step:=T 0=T Bead:=T pbc="F F F"
C      -48.18710000     -34.83700000     -72.95460000
C      -48.52480000     -33.56570000     -72.53610000
C      -48.64760000     -33.29500000     -71.15190000
C      -48.42000000     -34.23700000     -70.19110000
C      -48.11840000     -35.59090000     -70.66750000
C      -47.97480000     -35.88880000     -72.01910000
H      -48.15780000     -35.04640000     -74.02730000
H      -48.90600000     -32.31610000     -70.93250000
H      -47.89810000     -36.41150000     -69.97450000
H      -47.65790000     -36.80570000     -72.44410000
C      -48.27390000     -33.95050000     -68.72770000
H      -48.21860000     -34.87820000     -68.19480000
H      -49.22220000     -33.51330000     -68.54060000
C      -48.84440000     -32.51880000     -73.55600000
H      -48.90800000     -33.05870000     -74.47070000
H      -49.70700000     -31.86800000     -73.43950000
S      -46.99590000     -32.84060000     -68.15800000
S      -47.39260000     -31.28880000     -73.96830000
C      -45.46940000     -33.60820000     -68.85930000
H      -45.06340000     -34.42820000     -68.21720000
H      -45.66890000     -33.98180000     -69.88870000
C      -45.90570000     -32.30060000     -73.81080000
H      -45.18100000     -31.81880000     -74.42330000
H      -46.10740000     -33.29890000     -74.20880000
C      -45.28810000     -32.40050000     -72.40910000
H      -45.17550000     -31.38380000     -71.98910000
H      -45.98680000     -32.89460000     -71.60300000
C      -44.48380000     -32.42460000     -69.02620000
H      -44.29260000     -32.04560000     -68.01900000
H      -45.08330000     -31.58790000     -69.62420000
C      -43.17960000     -32.93790000     -69.67360000
C      -42.03400000     -33.27960000     -69.03340000
C      -43.09030000     -33.19540000     -71.15150000
H      -41.96270000     -33.12020000     -67.95300000
C      -41.84940000     -33.70220000     -71.45920000
C      -43.89650000     -32.99820000     -72.32670000
C      -43.26380000     -33.53140000     -73.46130000
S      -40.78600000     -33.95730000     -70.09840000
S      -41.67000000     -34.13910000     -73.13680000
H      -43.56380000     -33.37690000     -74.52680000
