40
Properties=species:S:1:pos:R:3 #=T CELL(abcABC):=T 1.889726e+02=T 90.00000=T Traj:=T positionsangstrom=T Step:=T 0=T Bead:=T pbc="F F F"
C      -41.64540000     -34.67470000     -69.45750000
C      -42.68280000     -33.83250000     -68.95120000
C      -42.93880000     -32.64880000     -69.55320000
C      -42.20400000     -32.09980000     -70.60370000
C      -41.21690000     -32.96380000     -71.19280000
C      -40.92600000     -34.18840000     -70.53490000
H      -41.54150000     -35.64950000     -68.92020000
H      -43.79340000     -32.15840000     -69.11840000
H      -40.62950000     -32.68530000     -72.04940000
H      -40.28380000     -34.88380000     -71.05980000
C      -42.56720000     -30.76290000     -71.17400000
H      -41.67410000     -30.10040000     -71.06530000
H      -43.35900000     -30.20140000     -70.66960000
C      -43.55460000     -34.31530000     -67.83770000
H      -42.96810000     -34.52030000     -66.95520000
H      -44.38220000     -33.68650000     -67.49720000
S      -42.85990000     -30.58440000     -73.01540000
S      -44.44900000     -35.92010000     -68.20460000
C      -44.68850000     -30.78750000     -73.18290000
H      -45.12720000     -29.83050000     -72.80800000
H      -44.87850000     -30.87760000     -74.26510000
C      -45.93250000     -35.33180000     -69.15800000
H      -46.49030000     -34.66040000     -68.51870000
H      -46.48800000     -36.28900000     -69.26400000
C      -45.81810000     -34.71240000     -70.50400000
H      -45.37090000     -33.70760000     -70.41070000
H      -45.08440000     -35.21870000     -71.11800000
C      -45.24520000     -31.96770000     -72.39980000
H      -45.27170000     -31.72820000     -71.27280000
H      -44.47610000     -32.81460000     -72.50120000
C      -46.61690000     -32.46220000     -72.83780000
C      -47.36530000     -31.84840000     -73.84050000
C      -47.39610000     -33.51300000     -72.20400000
H      -47.16630000     -31.06040000     -74.47140000
C      -48.65140000     -33.70040000     -72.76340000
C      -47.15300000     -34.54450000     -71.15600000
C      -48.23800000     -35.34460000     -70.98330000
S      -48.91600000     -32.67210000     -74.19040000
S      -49.57640000     -34.93840000     -72.02760000
H      -48.42940000     -36.04180000     -70.22570000
