40
Properties=species:S:1:pos:R:3 #=T CELL(abcABC):=T 1.889726e+02=T 90.00000=T Traj:=T positionsangstrom=T Step:=T 0=T Bead:=T pbc="F F F"
C      -47.86720000     -34.81820000     -73.88930000
C      -48.42040000     -33.63320000     -73.38760000
C      -48.61920000     -33.54660000     -71.98800000
C      -48.44700000     -34.64800000     -71.16520000
C      -48.02410000     -35.88070000     -71.72810000
C      -47.79190000     -35.97500000     -73.11150000
H      -47.78310000     -34.67680000     -74.99800000
H      -48.97030000     -32.67590000     -71.49700000
H      -47.88800000     -36.80350000     -71.13640000
H      -47.42580000     -36.85360000     -73.52350000
C      -48.58370000     -34.56890000     -69.58550000
H      -48.25770000     -35.43370000     -69.17080000
H      -49.62700000     -34.43920000     -69.17480000
C      -48.40880000     -32.40280000     -74.23910000
H      -48.44510000     -32.68580000     -75.35190000
H      -49.30390000     -31.77130000     -74.02910000
S      -47.65430000     -33.22120000     -68.81960000
S      -46.91110000     -31.29360000     -73.80940000
C      -45.95110000     -33.38810000     -69.53480000
H      -45.65730000     -34.41000000     -69.50210000
H      -45.92100000     -33.05450000     -70.51720000
C      -45.55410000     -32.42070000     -73.34190000
H      -44.86620000     -32.63690000     -74.15600000
H      -45.85850000     -33.39870000     -73.10590000
C      -44.75860000     -31.74670000     -72.23970000
H      -44.48030000     -30.81040000     -72.67880000
H      -45.40230000     -31.61950000     -71.39430000
C      -44.89290000     -32.39730000     -68.85980000
H      -44.88020000     -32.25930000     -67.76740000
H      -44.99020000     -31.37910000     -69.21580000
C      -43.57880000     -32.84010000     -69.20760000
C      -42.70010000     -33.41760000     -68.29720000
C      -43.08800000     -33.00100000     -70.55060000
H      -42.95120000     -33.48930000     -67.21730000
C      -41.92330000     -33.69020000     -70.65800000
C      -43.49100000     -32.54940000     -71.83320000
C      -42.63010000     -32.83760000     -72.85970000
S      -41.30940000     -34.15640000     -69.00500000
S      -41.28500000     -33.76170000     -72.24600000
H      -42.61510000     -32.80930000     -73.92450000
