40
Properties=species:S:1:pos:R:3 #=T CELL(abcABC):=T 1.889726e+02=T 90.00000=T Traj:=T positionsangstrom=T Step:=T 0=T Bead:=T pbc="F F F"
C      -47.88820000     -35.04790000     -73.60500000
C      -48.17420000     -33.76160000     -73.11560000
C      -48.40770000     -33.49860000     -71.75290000
C      -48.39220000     -34.56130000     -70.81450000
C      -47.97130000     -35.82010000     -71.29230000
C      -47.69090000     -36.03720000     -72.66210000
H      -47.61730000     -35.33170000     -74.57720000
H      -48.65080000     -32.49310000     -71.46450000
H      -47.72530000     -36.60210000     -70.61070000
H      -47.33580000     -37.08970000     -72.92440000
C      -48.73380000     -34.30050000     -69.35230000
H      -48.56150000     -35.16430000     -68.75070000
H      -49.74510000     -33.86140000     -69.26180000
C      -48.33360000     -32.68700000     -74.11460000
H      -48.11470000     -32.88430000     -75.15540000
H      -49.30770000     -32.23940000     -73.94960000
S      -47.73720000     -32.99800000     -68.47650000
S      -47.19600000     -31.19210000     -73.73920000
C      -45.94480000     -33.53350000     -68.50270000
H      -45.60860000     -33.89890000     -67.50310000
H      -45.84620000     -34.38870000     -69.19300000
C      -45.49980000     -31.96270000     -73.75650000
H      -44.86400000     -31.46280000     -74.55990000
H      -45.56700000     -33.01610000     -74.17450000
C      -44.85420000     -31.91540000     -72.39720000
H      -44.80170000     -30.85110000     -72.13270000
H      -45.44640000     -32.47500000     -71.69030000
C      -44.95270000     -32.44820000     -69.01100000
H      -44.68940000     -31.75300000     -68.13990000
H      -45.43130000     -31.76090000     -69.72790000
C      -43.61090000     -33.08210000     -69.57530000
C      -42.77160000     -33.69020000     -68.62580000
C      -43.07150000     -33.05910000     -70.92040000
H      -43.01420000     -33.84850000     -67.57990000
C      -41.87030000     -33.81210000     -70.94490000
C      -43.43770000     -32.50570000     -72.28810000
C      -42.44900000     -32.73880000     -73.17420000
S      -41.31310000     -34.26150000     -69.38250000
S      -41.18330000     -33.70920000     -72.58220000
H      -42.46930000     -32.39620000     -74.21910000
