40
Properties=species:S:1:pos:R:3 #=T CELL(abcABC):=T 1.889726e+02=T 90.00000=T Traj:=T positionsangstrom=T Step:=T 0=T Bead:=T pbc="F F F"
C      -47.68580000     -34.99890000     -73.39580000
C      -48.15740000     -33.71980000     -73.01970000
C      -48.52300000     -33.44840000     -71.67690000
C      -48.43480000     -34.51680000     -70.73540000
C      -47.96380000     -35.80770000     -71.20130000
C      -47.58940000     -36.02820000     -72.52720000
H      -47.47940000     -35.26210000     -74.49720000
H      -48.73410000     -32.46880000     -71.32740000
H      -48.04180000     -36.65020000     -70.46440000
H      -47.16650000     -36.98120000     -72.76760000
C      -48.75060000     -34.40010000     -69.20790000
H      -48.43720000     -35.31520000     -68.69960000
H      -49.81460000     -34.30780000     -68.88200000
C      -48.22150000     -32.60760000     -73.99220000
H      -48.04440000     -33.05920000     -75.00260000
H      -49.30750000     -32.31950000     -74.09690000
S      -47.59570000     -32.96750000     -68.47180000
S      -47.24070000     -31.07970000     -73.80370000
C      -45.95370000     -33.68730000     -68.70980000
H      -45.67440000     -34.07140000     -67.72540000
H      -45.98610000     -34.50610000     -69.44010000
C      -45.41250000     -31.59550000     -73.82220000
H      -44.74140000     -30.81010000     -74.05950000
H      -45.35840000     -32.36530000     -74.55200000
C      -44.96950000     -32.16060000     -72.43530000
H      -45.06860000     -31.27900000     -71.73010000
H      -45.68450000     -32.89870000     -72.07170000
C      -45.01760000     -32.60880000     -69.24440000
H      -44.91880000     -31.80000000     -68.56190000
H      -45.50650000     -32.26850000     -70.12640000
C      -43.61100000     -33.13720000     -69.53700000
C      -42.76020000     -33.79130000     -68.67160000
C      -43.16600000     -33.12520000     -70.86690000
H      -42.96220000     -33.97450000     -67.65460000
C      -41.88020000     -33.65750000     -70.97250000
C      -43.61620000     -32.69870000     -72.24880000
C      -42.73230000     -32.94270000     -73.22170000
S      -41.25970000     -34.32980000     -69.51250000
S      -41.15610000     -33.56180000     -72.54010000
H      -42.85190000     -32.64190000     -74.24460000
