40
Properties=species:S:1:pos:R:3 #=T CELL(abcABC):=T 1.889726e+02=T 90.00000=T Traj:=T positionsangstrom=T Step:=T 0=T Bead:=T pbc="F F F"
C      -47.51060000     -34.90280000     -73.34000000
C      -47.96910000     -33.61190000     -72.92580000
C      -48.41420000     -33.40710000     -71.59980000
C      -48.43350000     -34.45670000     -70.67570000
C      -47.85210000     -35.71610000     -71.09790000
C      -47.48930000     -35.93490000     -72.42500000
H      -47.33410000     -35.08030000     -74.43170000
H      -48.92090000     -32.45310000     -71.28010000
H      -47.66940000     -36.50480000     -70.34880000
H      -47.17240000     -36.96390000     -72.66040000
C      -48.85030000     -34.21640000     -69.26160000
H      -49.00640000     -35.22260000     -68.75580000
H      -49.80280000     -33.78200000     -69.31190000
C      -48.25550000     -32.54860000     -73.90210000
H      -47.96400000     -33.01760000     -74.84090000
H      -49.31330000     -32.16700000     -73.92280000
S      -47.68910000     -33.09440000     -68.40510000
S      -47.14880000     -30.99730000     -73.73980000
C      -46.03010000     -33.81890000     -68.93030000
H      -45.75440000     -34.67720000     -68.26610000
H      -46.08620000     -34.21470000     -69.94970000
C      -45.49280000     -31.74860000     -73.67150000
H      -44.76710000     -30.94000000     -73.92360000
H      -45.53570000     -32.42120000     -74.60880000
C      -45.14110000     -32.42190000     -72.36620000
H      -45.43250000     -31.77050000     -71.61360000
H      -45.76050000     -33.29150000     -72.18740000
C      -44.98610000     -32.70770000     -68.90440000
H      -44.77550000     -32.35710000     -67.88480000
H      -45.41910000     -31.86090000     -69.48220000
C      -43.63030000     -33.20270000     -69.58890000
C      -42.75040000     -33.85170000     -68.79340000
C      -43.16760000     -33.21070000     -70.97060000
H      -42.75760000     -34.00910000     -67.71510000
C      -41.82230000     -33.69350000     -71.11840000
C      -43.68760000     -32.77630000     -72.23690000
C      -42.80770000     -32.88490000     -73.24990000
S      -41.22290000     -34.22750000     -69.57260000
S      -41.23610000     -33.53440000     -72.78410000
H      -42.73150000     -32.81640000     -74.29820000
