40
Properties=species:S:1:pos:R:3 #=T CELL(abcABC):=T 1.889726e+02=T 90.00000=T Traj:=T positionsangstrom=T Step:=T 0=T Bead:=T pbc="F F F"
C      -47.11630000     -35.55200000     -74.08560000
C      -47.38040000     -34.23880000     -73.81380000
C      -48.19330000     -33.95260000     -72.67440000
C      -48.65110000     -34.99800000     -71.85520000
C      -48.37880000     -36.31220000     -72.22360000
C      -47.57330000     -36.59020000     -73.30590000
H      -46.53010000     -35.77200000     -74.99840000
H      -48.43970000     -32.94680000     -72.42160000
H      -48.82140000     -37.09720000     -71.66460000
H      -47.23750000     -37.67060000     -73.42000000
C      -49.42610000     -34.72300000     -70.62930000
H      -49.56470000     -35.61980000     -69.97920000
H      -50.43590000     -34.27780000     -70.77540000
C      -47.08110000     -33.14410000     -74.80930000
H      -46.44000000     -33.57030000     -75.55590000
H      -47.98370000     -32.77650000     -75.28650000
S      -48.49840000     -33.44110000     -69.60080000
S      -46.39790000     -31.56720000     -74.01320000
C      -46.63070000     -33.87780000     -69.79850000
H      -46.42190000     -34.81550000     -69.32770000
H      -46.39000000     -34.00340000     -70.81510000
C      -45.04230000     -32.32700000     -73.03140000
H      -44.24370000     -32.82800000     -73.53210000
H      -45.39130000     -33.05720000     -72.39080000
C      -44.33780000     -31.24780000     -72.19030000
H      -44.14210000     -30.40390000     -72.82580000
H      -45.08450000     -30.93100000     -71.36510000
C      -45.78180000     -32.73210000     -69.21750000
H      -46.19460000     -32.58310000     -68.20670000
H      -46.05780000     -31.76220000     -69.67050000
C      -44.25380000     -32.94360000     -69.15810000
C      -43.69230000     -33.77040000     -68.18230000
C      -43.22770000     -32.41920000     -70.05770000
H      -44.27580000     -34.20350000     -67.33630000
C      -41.99660000     -33.04000000     -69.91920000
C      -43.16800000     -31.77800000     -71.39800000
C      -41.94120000     -31.76440000     -71.98880000
S      -41.89100000     -34.07880000     -68.46460000
S      -40.69040000     -32.58740000     -70.97280000
H      -41.78000000     -31.36360000     -72.95820000
