40
Properties=species:S:1:pos:R:3 #=T CELL(abcABC):=T 1.889726e+02=T 90.00000=T Traj:=T positionsangstrom=T Step:=T 0=T Bead:=T pbc="F F F"
C      -47.62890000     -35.19700000     -74.15830000
C      -47.90980000     -33.90080000     -73.66310000
C      -48.48560000     -33.75860000     -72.39030000
C      -48.56130000     -34.83880000     -71.50600000
C      -48.19780000     -36.12890000     -71.97570000
C      -47.79270000     -36.31250000     -73.27990000
H      -47.29690000     -35.30870000     -75.16800000
H      -48.62320000     -32.75360000     -71.98910000
H      -48.18150000     -36.89500000     -71.26110000
H      -47.59240000     -37.37600000     -73.57390000
C      -49.17670000     -34.64550000     -70.16100000
H      -49.19790000     -35.54990000     -69.55080000
H      -50.24340000     -34.37280000     -70.22220000
C      -47.76620000     -32.69290000     -74.54650000
H      -47.59430000     -32.92380000     -75.57470000
H      -48.63870000     -32.03370000     -74.43020000
S      -48.27110000     -33.29170000     -69.28050000
S      -46.38940000     -31.49170000     -74.09560000
C      -46.52770000     -33.76730000     -69.43130000
H      -46.42320000     -34.28260000     -68.46330000
H      -46.24880000     -34.49120000     -70.17560000
C      -45.03590000     -32.52800000     -73.34170000
H      -44.42620000     -32.83610000     -74.24910000
H      -45.50000000     -33.40870000     -72.79770000
C      -44.20010000     -31.50300000     -72.43210000
H      -43.86790000     -30.72430000     -73.03660000
H      -44.90740000     -30.96950000     -71.73180000
C      -45.58390000     -32.57780000     -69.47700000
H      -45.80000000     -31.91730000     -68.59750000
H      -45.73200000     -31.99440000     -70.42430000
C      -44.19080000     -33.07610000     -69.36220000
C      -43.55670000     -33.69130000     -68.25870000
C      -43.16620000     -32.85060000     -70.39710000
H      -44.09870000     -34.03170000     -67.36570000
C      -41.85750000     -33.22520000     -69.98410000
C      -43.09300000     -32.18700000     -71.69980000
C      -41.84480000     -32.18630000     -72.26160000
S      -41.86790000     -34.04620000     -68.45840000
S      -40.67080000     -33.03170000     -71.24170000
H      -41.54250000     -31.96800000     -73.28080000
