40
Properties=species:S:1:pos:R:3 #=T CELL(abcABC):=T 1.889726e+02=T 90.00000=T Traj:=T positionsangstrom=T Step:=T 0=T Bead:=T pbc="F F F"
C      -44.86960000     -28.81510000     -71.67620000
C      -45.50270000     -29.76000000     -70.91260000
C      -44.69220000     -30.62360000     -70.15190000
C      -43.30220000     -30.58050000     -70.18650000
C      -42.65410000     -29.67360000     -71.04630000
C      -43.43520000     -28.79360000     -71.77210000
H      -45.47880000     -28.20600000     -72.31190000
H      -45.20670000     -31.20110000     -69.38320000
H      -41.56460000     -29.51480000     -71.05680000
H      -42.94310000     -28.10860000     -72.41280000
C      -42.46570000     -31.59510000     -69.44160000
H      -43.13190000     -32.14650000     -68.68880000
H      -41.66210000     -31.15500000     -68.87860000
C      -46.97510000     -29.80760000     -70.90530000
H      -47.33400000     -30.46340000     -70.11510000
H      -47.41290000     -28.81370000     -70.98100000
S      -41.71990000     -32.73590000     -70.68070000
S      -47.68390000     -30.66050000     -72.48080000
C      -42.97770000     -34.14100000     -70.63840000
H      -42.46470000     -35.08360000     -70.25460000
H      -43.62010000     -33.77540000     -69.83330000
C      -47.22090000     -32.45690000     -72.54610000
H      -46.25560000     -32.50750000     -73.03890000
H      -47.91710000     -32.93960000     -73.19570000
C      -47.11960000     -33.22000000     -71.21300000
H      -46.30630000     -32.95630000     -70.54180000
H      -47.95330000     -33.02950000     -70.57410000
C      -43.76540000     -34.28350000     -71.93850000
H      -43.17280000     -34.40900000     -72.80200000
H      -44.43080000     -33.43860000     -72.13870000
C      -44.61400000     -35.52910000     -71.71060000
C      -44.05070000     -36.78740000     -71.86550000
C      -46.03020000     -35.63820000     -71.47780000
H      -43.01450000     -36.98560000     -71.97310000
C      -46.45970000     -36.95970000     -71.41740000
C      -47.12270000     -34.77010000     -71.34580000
C      -48.36580000     -35.40330000     -71.08900000
S      -45.26590000     -38.17670000     -71.75610000
S      -48.22130000     -37.12860000     -71.17900000
H      -49.30750000     -34.87090000     -70.93060000
