40
Properties=species:S:1:pos:R:3 #=T CELL(abcABC):=T 1.889726e+02=T 90.00000=T Traj:=T positionsangstrom=T Step:=T 0=T Bead:=T pbc="F F F"
C      -47.04100000     -35.60200000     -74.24740000
C      -47.38930000     -34.26190000     -73.94950000
C      -48.04750000     -34.05260000     -72.72410000
C      -48.48580000     -35.13980000     -71.90850000
C      -48.09290000     -36.43480000     -72.25920000
C      -47.42280000     -36.65960000     -73.49360000
H      -46.53930000     -35.77460000     -75.19480000
H      -48.11750000     -33.01290000     -72.23500000
H      -48.32770000     -37.24170000     -71.65040000
H      -47.20480000     -37.69720000     -73.68670000
C      -49.06570000     -34.77730000     -70.56910000
H      -48.92730000     -35.67550000     -69.99300000
H      -50.13920000     -34.61320000     -70.60810000
C      -46.98130000     -33.13830000     -74.86400000
H      -46.11950000     -33.53970000     -75.50840000
H      -47.75590000     -32.82750000     -75.56270000
S      -48.36470000     -33.33870000     -69.62490000
S      -46.44960000     -31.62500000     -73.99320000
C      -46.65700000     -33.81280000     -69.70220000
H      -46.55210000     -34.73140000     -69.09210000
H      -46.55110000     -34.13890000     -70.81040000
C      -44.95900000     -32.20460000     -73.00260000
H      -44.17250000     -32.35270000     -73.79340000
H      -45.13550000     -33.28230000     -72.58920000
C      -44.53540000     -31.13660000     -72.04050000
H      -44.30550000     -30.20610000     -72.56500000
H      -45.24810000     -30.86280000     -71.24420000
C      -45.79180000     -32.68500000     -69.23330000
H      -46.19820000     -32.26650000     -68.26260000
H      -45.94680000     -31.77050000     -69.86370000
C      -44.38050000     -33.07970000     -69.24850000
C      -43.87970000     -33.96960000     -68.32390000
C      -43.30390000     -32.51730000     -70.11520000
H      -44.41890000     -34.56480000     -67.58540000
C      -42.04480000     -33.08120000     -69.86010000
C      -43.27360000     -31.66300000     -71.33340000
C      -42.00450000     -31.70470000     -71.87130000
S      -42.09480000     -34.04560000     -68.32530000
S      -40.82410000     -32.47280000     -70.93920000
H      -41.78960000     -31.16540000     -72.80000000
