40
Properties=species:S:1:pos:R:3 #=T CELL(abcABC):=T 1.889726e+02=T 90.00000=T Traj:=T positionsangstrom=T Step:=T 0=T Bead:=T pbc="F F F"
C      -47.10190000     -35.60940000     -74.39200000
C      -47.32860000     -34.26070000     -74.02120000
C      -48.03600000     -34.11290000     -72.81140000
C      -48.34410000     -35.17340000     -71.99740000
C      -47.85830000     -36.48140000     -72.29320000
C      -47.29030000     -36.68550000     -73.54740000
H      -46.50350000     -35.80480000     -75.27600000
H      -48.54640000     -33.13060000     -72.54870000
H      -47.98490000     -37.29050000     -71.57630000
H      -47.02800000     -37.66050000     -73.88720000
C      -49.08220000     -34.95410000     -70.74130000
H      -49.05060000     -35.89320000     -70.10250000
H      -50.12660000     -34.71390000     -70.99240000
C      -46.88240000     -33.11840000     -74.90560000
H      -45.98820000     -33.37210000     -75.46070000
H      -47.64900000     -32.88050000     -75.63300000
S      -48.55020000     -33.49370000     -69.71040000
S      -46.53270000     -31.54890000     -73.96310000
C      -46.70390000     -33.79820000     -69.60060000
H      -46.46950000     -34.59260000     -68.95210000
H      -46.36700000     -34.06790000     -70.56980000
C      -44.92360000     -32.11700000     -73.15950000
H      -44.22650000     -32.16770000     -73.92820000
H      -45.16390000     -32.99600000     -72.66770000
C      -44.41850000     -31.11790000     -72.05740000
H      -44.25640000     -30.18220000     -72.61640000
H      -45.28380000     -30.88010000     -71.51150000
C      -45.89770000     -32.56370000     -69.08120000
H      -46.28260000     -32.26690000     -68.16530000
H      -45.93660000     -31.81510000     -69.84830000
C      -44.39890000     -33.01600000     -69.10760000
C      -43.78210000     -33.80660000     -68.14480000
C      -43.36930000     -32.54480000     -70.14680000
H      -44.18560000     -34.30930000     -67.26950000
C      -42.12540000     -33.02030000     -69.75260000
C      -43.25990000     -31.65120000     -71.25280000
C      -41.99960000     -31.49040000     -71.72480000
S      -42.08020000     -34.20920000     -68.48080000
S      -40.80070000     -32.40310000     -70.71120000
H      -41.66960000     -30.95660000     -72.68800000
