40
Properties=species:S:1:pos:R:3 #=T CELL(abcABC):=T 1.889726e+02=T 90.00000=T Traj:=T positionsangstrom=T Step:=T 0=T Bead:=T pbc="F F F"
C      -46.23440000     -35.31670000     -74.81660000
C      -46.94020000     -34.20450000     -74.33610000
C      -47.81700000     -34.39600000     -73.28640000
C      -47.82240000     -35.58740000     -72.52220000
C      -46.92910000     -36.60650000     -72.86980000
C      -46.15410000     -36.45650000     -74.06490000
H      -45.53910000     -35.22410000     -75.70000000
H      -48.34300000     -33.57500000     -72.98490000
H      -46.72430000     -37.53500000     -72.30740000
H      -45.41190000     -37.14120000     -74.34520000
C      -48.75590000     -35.69940000     -71.27210000
H      -48.71840000     -36.68950000     -70.84390000
H      -49.80710000     -35.47040000     -71.43700000
C      -46.82630000     -32.87960000     -75.07210000
H      -45.91910000     -32.92050000     -75.72390000
H      -47.75050000     -32.62590000     -75.65890000
S      -48.29870000     -34.53100000     -69.95350000
S      -46.76010000     -31.34100000     -74.06190000
C      -46.47110000     -34.57070000     -69.94640000
H      -46.04640000     -35.59460000     -69.70300000
H      -46.12030000     -34.27020000     -70.87370000
C      -45.17340000     -31.56300000     -73.19890000
H      -44.47280000     -30.82420000     -73.55930000
H      -44.81180000     -32.55030000     -73.46130000
C      -45.29650000     -31.49850000     -71.63770000
H      -45.53620000     -30.46050000     -71.28620000
H      -46.07180000     -32.19600000     -71.37020000
C      -45.94540000     -33.52090000     -68.82700000
H      -46.24340000     -33.72260000     -67.75080000
H      -46.39800000     -32.52840000     -69.00180000
C      -44.47270000     -33.33350000     -68.82090000
C      -43.74220000     -33.79620000     -67.73240000
C      -43.74850000     -32.54920000     -69.77060000
H      -44.23650000     -34.20000000     -66.80870000
C      -42.40440000     -32.59730000     -69.41760000
C      -43.94900000     -31.77380000     -70.96130000
C      -42.82310000     -31.11990000     -71.40680000
S      -42.10950000     -33.28590000     -67.83540000
S      -41.34050000     -31.67070000     -70.51200000
H      -42.68710000     -30.53520000     -72.30740000
