40
Properties=species:S:1:pos:R:3 #=T CELL(abcABC):=T 1.889726e+02=T 90.00000=T Traj:=T positionsangstrom=T Step:=T 0=T Bead:=T pbc="F F F"
C      -46.30400000     -35.27600000     -74.65540000
C      -47.12500000     -34.16670000     -74.30010000
C      -47.97200000     -34.22960000     -73.18780000
C      -48.02780000     -35.44020000     -72.45220000
C      -47.29720000     -36.52450000     -72.87040000
C      -46.51070000     -36.51460000     -74.03860000
H      -45.72160000     -35.26200000     -75.54310000
H      -48.59440000     -33.34470000     -72.74690000
H      -47.44550000     -37.40980000     -72.29800000
H      -45.94300000     -37.38650000     -74.39630000
C      -48.80410000     -35.62360000     -71.25420000
H      -48.85410000     -36.59320000     -70.77860000
H      -49.81450000     -35.40220000     -71.45100000
C      -47.04040000     -32.84950000     -75.09030000
H      -46.30530000     -33.04730000     -75.99070000
H      -48.05970000     -32.67050000     -75.48320000
S      -48.33670000     -34.31020000     -69.93740000
S      -46.42330000     -31.33180000     -74.19160000
C      -46.52330000     -34.41610000     -69.73460000
H      -46.34720000     -35.42860000     -69.32670000
H      -46.08130000     -34.44270000     -70.71900000
C      -44.97790000     -31.91800000     -73.14050000
H      -44.05550000     -31.50490000     -73.54930000
H      -45.01740000     -33.02880000     -73.18280000
C      -45.09990000     -31.49100000     -71.72230000
H      -45.58410000     -30.50210000     -71.81190000
H      -45.81910000     -32.14620000     -71.19700000
C      -46.03590000     -33.24450000     -68.94320000
H      -46.50920000     -33.36270000     -67.96060000
H      -46.40980000     -32.22530000     -69.29650000
C      -44.56830000     -33.21520000     -68.87900000
C      -43.88880000     -33.94270000     -67.92970000
C      -43.62010000     -32.58720000     -69.82020000
H      -44.26790000     -34.66190000     -67.27070000
C      -42.29410000     -32.66210000     -69.44510000
C      -43.79070000     -31.67590000     -70.95250000
C      -42.58230000     -31.14020000     -71.33020000
S      -42.12890000     -33.68450000     -67.97850000
S      -41.18460000     -31.68060000     -70.33310000
H      -42.44750000     -30.54420000     -72.19120000
