40
Properties=species:S:1:pos:R:3 #=T CELL(abcABC):=T 1.889726e+02=T 90.00000=T Traj:=T positionsangstrom=T Step:=T 0=T Bead:=T pbc="F F F"
C      -45.84330000     -35.15440000     -74.63300000
C      -46.82000000     -34.17060000     -74.29680000
C      -47.72740000     -34.45070000     -73.26820000
C      -47.76390000     -35.68830000     -72.58810000
C      -46.86790000     -36.67370000     -73.03510000
C      -45.88230000     -36.36660000     -73.93640000
H      -45.13320000     -35.12330000     -75.43130000
H      -48.37770000     -33.68320000     -72.88790000
H      -46.83720000     -37.65170000     -72.57070000
H      -45.14830000     -37.12130000     -74.17040000
C      -48.62910000     -35.94800000     -71.40250000
H      -48.50670000     -36.99660000     -70.99120000
H      -49.71600000     -35.79590000     -71.53570000
C      -47.00290000     -32.86370000     -75.03860000
H      -46.19370000     -32.65580000     -75.73700000
H      -47.88650000     -32.99430000     -75.57170000
S      -48.29120000     -34.66810000     -70.03580000
S      -47.06820000     -31.44120000     -73.88380000
C      -46.39730000     -34.64910000     -69.85020000
H      -46.13700000     -35.67150000     -69.46090000
H      -46.04370000     -34.53900000     -70.92220000
C      -45.37630000     -31.47780000     -73.16650000
H      -44.86790000     -30.55440000     -73.50070000
H      -44.71810000     -32.34540000     -73.46940000
C      -45.41830000     -31.64710000     -71.60350000
H      -45.84230000     -30.79280000     -71.05800000
H      -46.02940000     -32.48110000     -71.36060000
C      -45.95330000     -33.50500000     -68.88760000
H      -46.38840000     -33.81930000     -67.92700000
H      -46.55500000     -32.59490000     -68.98140000
C      -44.49380000     -33.26650000     -68.81790000
C      -43.76700000     -33.57230000     -67.68570000
C      -43.69880000     -32.51100000     -69.77760000
H      -44.18030000     -34.25260000     -66.90580000
C      -42.33760000     -32.48090000     -69.43090000
C      -43.94240000     -31.81340000     -71.07000000
C      -42.76830000     -31.24280000     -71.55790000
S      -42.06110000     -33.14560000     -67.87680000
S      -41.38140000     -31.51750000     -70.54170000
H      -42.66770000     -30.63200000     -72.39530000
