40
Properties=species:S:1:pos:R:3 #=T CELL(abcABC):=T 1.889726e+02=T 90.00000=T Traj:=T positionsangstrom=T Step:=T 0=T Bead:=T pbc="F F F"
C      -46.42700000     -35.32870000     -74.55480000
C      -47.19140000     -34.16880000     -74.33160000
C      -48.07170000     -34.17310000     -73.23490000
C      -48.18070000     -35.24830000     -72.35780000
C      -47.45790000     -36.45560000     -72.66930000
C      -46.53390000     -36.44620000     -73.69860000
H      -45.81000000     -35.27290000     -75.47120000
H      -48.67420000     -33.31790000     -73.06120000
H      -47.58720000     -37.40910000     -72.16030000
H      -46.14090000     -37.42300000     -73.99100000
C      -49.00440000     -35.26250000     -71.13990000
H      -48.86960000     -36.23790000     -70.68300000
H      -50.03270000     -35.03600000     -71.32400000
C      -47.00530000     -32.88610000     -75.10000000
H      -46.26630000     -32.91350000     -75.87580000
H      -47.94590000     -32.50540000     -75.64710000
S      -48.51750000     -33.92720000     -69.88800000
S      -46.57310000     -31.48770000     -73.92090000
C      -46.72850000     -34.20170000     -69.79360000
H      -46.37840000     -35.07430000     -69.24610000
H      -46.36030000     -34.43400000     -70.79730000
C      -45.33190000     -32.40050000     -72.81870000
H      -44.56990000     -32.92110000     -73.48350000
H      -45.74010000     -33.27690000     -72.34080000
C      -44.72780000     -31.29150000     -71.86690000
H      -44.64810000     -30.37810000     -72.51520000
H      -45.50780000     -31.02220000     -71.14330000
C      -46.01640000     -33.04990000     -69.13080000
H      -46.45380000     -33.12020000     -68.05490000
H      -46.23650000     -32.09190000     -69.55400000
C      -44.47250000     -33.18620000     -69.09830000
C      -43.91030000     -34.01350000     -68.16660000
C      -43.48540000     -32.50760000     -69.88270000
H      -44.35190000     -34.53240000     -67.31460000
C      -42.15710000     -32.78410000     -69.50870000
C      -43.45430000     -31.81160000     -71.15750000
C      -42.20420000     -31.41630000     -71.49060000
S      -42.08670000     -33.84930000     -68.16470000
S      -40.92190000     -31.88530000     -70.37550000
H      -42.10750000     -30.86630000     -72.39810000
