40
Properties=species:S:1:pos:R:3 #=T CELL(abcABC):=T 1.889726e+02=T 90.00000=T Traj:=T positionsangstrom=T Step:=T 0=T Bead:=T pbc="F F F"
C      -46.59620000     -35.44550000     -74.26450000
C      -47.26520000     -34.23620000     -74.02880000
C      -48.08590000     -34.19460000     -72.93100000
C      -48.34300000     -35.33290000     -72.11770000
C      -47.75990000     -36.55500000     -72.43280000
C      -46.94480000     -36.61060000     -73.58370000
H      -45.91290000     -35.52550000     -75.10900000
H      -48.46730000     -33.29550000     -72.65580000
H      -48.09630000     -37.54650000     -72.03670000
H      -46.34280000     -37.49100000     -73.92810000
C      -49.19900000     -35.07410000     -70.92850000
H      -49.21440000     -35.95570000     -70.29630000
H      -50.21430000     -34.75230000     -71.31430000
C      -46.82530000     -33.08170000     -74.84070000
H      -45.90180000     -33.35830000     -75.37420000
H      -47.52890000     -32.81160000     -75.56100000
S      -48.57570000     -33.66200000     -69.88780000
S      -46.45270000     -31.51210000     -73.98840000
C      -46.72890000     -34.13120000     -69.71210000
H      -46.66610000     -34.85090000     -68.94470000
H      -46.39630000     -34.55980000     -70.64320000
C      -45.10640000     -32.05450000     -72.86420000
H      -44.26030000     -32.51070000     -73.36160000
H      -45.34770000     -32.83550000     -72.06550000
C      -44.49980000     -30.89950000     -71.93920000
H      -44.07290000     -30.26210000     -72.64900000
H      -45.26010000     -30.37370000     -71.33980000
C      -45.93650000     -32.82060000     -69.34820000
H      -46.35400000     -32.43690000     -68.46810000
H      -46.27470000     -32.07760000     -70.08650000
C      -44.40500000     -33.09510000     -69.20710000
C      -43.86360000     -33.80510000     -68.15000000
C      -43.41950000     -32.59180000     -70.05550000
H      -44.48120000     -34.30680000     -67.43060000
C      -42.13990000     -32.95610000     -69.65370000
C      -43.34370000     -31.66280000     -71.16260000
C      -42.09090000     -31.44720000     -71.66890000
S      -42.16840000     -34.00090000     -68.29530000
S      -40.86960000     -32.28080000     -70.64110000
H      -41.62920000     -30.73300000     -72.30680000
