40
Properties=species:S:1:pos:R:3 #=T CELL(abcABC):=T 1.889726e+02=T 90.00000=T Traj:=T positionsangstrom=T Step:=T 0=T Bead:=T pbc="F F F"
C      -46.97770000     -35.00350000     -69.19330000
C      -47.39160000     -34.65830000     -70.50720000
C      -46.55550000     -34.97730000     -71.56800000
C      -45.29640000     -35.53810000     -71.33170000
C      -44.85720000     -35.65500000     -70.02460000
C      -45.67180000     -35.36920000     -68.96770000
H      -47.58090000     -34.89630000     -68.29550000
H      -46.88830000     -34.75060000     -72.58590000
H      -43.83290000     -35.92800000     -69.93280000
H      -45.37530000     -35.67190000     -67.95630000
C      -44.38190000     -36.12230000     -72.37680000
H      -44.42900000     -37.21370000     -72.26530000
H      -43.28630000     -35.89090000     -72.21780000
C      -48.78110000     -34.18590000     -70.81230000
H      -48.94580000     -33.91530000     -71.93390000
H      -49.59400000     -34.81510000     -70.50280000
S      -44.75400000     -35.93510000     -74.16450000
S      -48.91320000     -32.35070000     -70.06320000
C      -44.03590000     -34.28600000     -74.69540000
H      -43.01640000     -34.42440000     -74.50890000
H      -44.20100000     -34.26170000     -75.81470000
C      -48.19670000     -31.30710000     -71.43420000
H      -48.20400000     -30.17700000     -71.21850000
H      -48.96680000     -31.35020000     -72.18850000
C      -46.92140000     -31.80240000     -72.02280000
H      -47.08300000     -32.83470000     -72.31060000
H      -46.71210000     -31.28870000     -72.96540000
C      -44.48770000     -32.98370000     -73.94180000
H      -45.49070000     -32.96120000     -73.72020000
H      -44.25730000     -32.14730000     -74.64070000
C      -43.77950000     -32.72320000     -72.66190000
C      -42.43970000     -32.87560000     -72.54180000
C      -44.31290000     -32.06870000     -71.50360000
H      -41.73780000     -33.15440000     -73.33240000
C      -43.37030000     -31.88720000     -70.46400000
C      -45.69550000     -31.68180000     -71.11050000
C      -45.70410000     -31.21370000     -69.80350000
S      -41.84770000     -32.43400000     -70.97480000
S      -44.13100000     -31.32490000     -69.01620000
H      -46.61950000     -31.00340000     -69.25530000
