40
Properties=species:S:1:pos:R:3 #=T CELL(abcABC):=T 1.889726e+02=T 90.00000=T Traj:=T positionsangstrom=T Step:=T 0=T Bead:=T pbc="F F F"
C      -48.60490000     -32.19040000     -71.05120000
C      -47.91370000     -31.54180000     -70.04000000
C      -46.93680000     -30.54330000     -70.37030000
C      -46.62200000     -30.26980000     -71.70860000
C      -47.41030000     -30.89500000     -72.69550000
C      -48.39080000     -31.80620000     -72.39360000
H      -49.42670000     -32.96840000     -70.84450000
H      -46.25590000     -30.16600000     -69.52500000
H      -47.24310000     -30.62830000     -73.74920000
H      -49.00480000     -32.03600000     -73.25930000
C      -45.39010000     -29.44100000     -72.09160000
H      -44.66520000     -29.50160000     -71.36440000
H      -45.58340000     -28.41290000     -72.29800000
C      -48.11750000     -32.03410000     -68.61070000
H      -47.49600000     -31.42360000     -67.92970000
H      -49.15460000     -31.93720000     -68.34390000
S      -44.53870000     -30.21470000     -73.50890000
S      -47.84970000     -33.82320000     -68.51590000
C      -44.36590000     -32.00300000     -73.03600000
H      -45.30330000     -32.45500000     -73.16910000
H      -43.63750000     -32.43190000     -73.68500000
C      -46.27610000     -34.14690000     -69.46050000
H      -45.57890000     -34.68420000     -68.78190000
H      -45.84850000     -33.18030000     -69.60840000
C      -46.61050000     -34.75020000     -70.81130000
H      -47.50520000     -35.41940000     -70.78370000
H      -46.86700000     -33.97000000     -71.51480000
C      -43.96390000     -32.30770000     -71.53900000
H      -44.85390000     -32.16160000     -70.91460000
H      -43.24480000     -31.64460000     -71.10490000
C      -43.43100000     -33.73780000     -71.41850000
C      -42.04960000     -33.83880000     -71.55750000
C      -44.08150000     -35.00060000     -71.56090000
H      -41.25590000     -33.11310000     -71.55220000
C      -43.11160000     -35.98580000     -71.78980000
C      -45.43370000     -35.52690000     -71.36630000
C      -45.40490000     -36.87950000     -71.45270000
S      -41.42180000     -35.45720000     -71.77510000
S      -43.77320000     -37.55670000     -71.66940000
H      -46.25810000     -37.57190000     -71.34640000
