40
Properties=species:S:1:pos:R:3 #=T CELL(abcABC):=T 1.889726e+02=T 90.00000=T Traj:=T positionsangstrom=T Step:=T 0=T Bead:=T pbc="F F F"
C      -45.52060000     -34.95250000     -74.57440000
C      -46.65020000     -34.20400000     -74.24360000
C      -47.38790000     -34.58050000     -73.15340000
C      -47.12620000     -35.75430000     -72.42330000
C      -46.03820000     -36.56220000     -72.79960000
C      -45.16480000     -36.07110000     -73.79690000
H      -44.79760000     -34.69870000     -75.44180000
H      -48.14870000     -33.87770000     -72.92090000
H      -45.79940000     -37.49260000     -72.25730000
H      -44.29090000     -36.71430000     -73.99440000
C      -47.94350000     -36.22270000     -71.20740000
H      -47.44600000     -37.05160000     -70.72810000
H      -48.90270000     -36.58220000     -71.57730000
C      -47.05700000     -32.96110000     -75.02940000
H      -46.21650000     -32.71710000     -75.66800000
H      -47.87220000     -33.16420000     -75.71680000
S      -48.14180000     -34.96230000     -69.84860000
S      -47.47210000     -31.54010000     -73.98070000
C      -46.36680000     -34.73800000     -69.35250000
H      -46.03920000     -35.58980000     -68.74600000
H      -45.82330000     -34.72030000     -70.27530000
C      -45.87600000     -31.27560000     -73.17900000
H      -45.78970000     -30.20110000     -72.84750000
H      -45.06800000     -31.31230000     -73.90740000
C      -45.66980000     -32.14110000     -71.92540000
H      -46.48890000     -31.82710000     -71.27340000
H      -45.80900000     -33.20850000     -72.05070000
C      -46.06000000     -33.42680000     -68.69080000
H      -46.45190000     -33.34610000     -67.73070000
H      -46.58710000     -32.69040000     -69.24460000
C      -44.60480000     -33.10790000     -68.73320000
C      -43.72220000     -33.35700000     -67.75120000
C      -43.95710000     -32.43550000     -69.84960000
H      -43.92700000     -33.73340000     -66.74110000
C      -42.66360000     -32.12660000     -69.51860000
C      -44.25610000     -32.00010000     -71.22620000
C      -43.12780000     -31.58320000     -71.83820000
S      -42.09300000     -32.77320000     -68.02150000
S      -41.74340000     -31.47600000     -70.79660000
H      -42.98490000     -31.22010000     -72.89900000
