40
Properties=species:S:1:pos:R:3 #=T CELL(abcABC):=T 1.889726e+02=T 90.00000=T Traj:=T positionsangstrom=T Step:=T 0=T Bead:=T pbc="F F F"
C      -45.32400000     -34.64040000     -74.27870000
C      -46.72380000     -34.36680000     -74.19180000
C      -47.47220000     -34.91130000     -73.15670000
C      -46.94680000     -35.88510000     -72.37650000
C      -45.57580000     -36.26620000     -72.53670000
C      -44.79260000     -35.66140000     -73.50420000
H      -44.75010000     -34.15870000     -75.02790000
H      -48.53780000     -34.55250000     -73.03870000
H      -45.16370000     -36.96730000     -71.84210000
H      -43.78360000     -35.97510000     -73.68070000
C      -47.77580000     -36.48380000     -71.31100000
H      -47.41810000     -37.52050000     -71.12970000
H      -48.84950000     -36.61360000     -71.55000000
C      -47.19860000     -33.22230000     -75.08120000
H      -46.47320000     -32.93680000     -75.82140000
H      -48.13690000     -33.50980000     -75.46260000
S      -47.87400000     -35.45300000     -69.75570000
S      -47.59220000     -31.71670000     -74.04860000
C      -46.26970000     -34.66880000     -69.68070000
H      -45.48650000     -35.39990000     -69.38380000
H      -45.96630000     -34.34240000     -70.64070000
C      -45.88910000     -31.30120000     -73.30730000
H      -45.68430000     -30.25100000     -73.39590000
H      -45.14520000     -31.76100000     -74.03550000
C      -45.73050000     -31.85930000     -71.92440000
H      -46.31900000     -31.19890000     -71.25470000
H      -46.19390000     -32.84040000     -71.92710000
C      -46.19390000     -33.45700000     -68.70110000
H      -46.47170000     -33.69250000     -67.68520000
H      -46.86200000     -32.63560000     -69.05760000
C      -44.77410000     -32.93150000     -68.76770000
C      -44.03590000     -32.89890000     -67.59390000
C      -44.00850000     -32.40370000     -69.94070000
H      -44.46110000     -33.22720000     -66.64420000
C      -42.65190000     -32.16740000     -69.61560000
C      -44.31860000     -31.92500000     -71.31130000
C      -43.21510000     -31.49940000     -71.98250000
S      -42.33610000     -32.41040000     -67.86170000
S      -41.74420000     -31.57740000     -70.97880000
H      -43.20010000     -30.98240000     -72.88770000
