40
Properties=species:S:1:pos:R:3 #=T CELL(abcABC):=T 1.889726e+02=T 90.00000=T Traj:=T positionsangstrom=T Step:=T 0=T Bead:=T pbc="F F F"
C      -45.73850000     -35.10070000     -74.62570000
C      -46.79660000     -34.24820000     -74.24040000
C      -47.57380000     -34.64130000     -73.13460000
C      -47.28480000     -35.86080000     -72.44230000
C      -46.17880000     -36.61140000     -72.77590000
C      -45.47940000     -36.26300000     -73.95950000
H      -45.15220000     -34.79690000     -75.52650000
H      -48.35570000     -33.98810000     -72.72160000
H      -45.76130000     -37.40620000     -72.17330000
H      -44.52950000     -36.84800000     -74.16560000
C      -48.14120000     -36.16520000     -71.23660000
H      -47.79870000     -37.00990000     -70.60620000
H      -49.18870000     -36.43330000     -71.50920000
C      -47.03470000     -32.95870000     -74.99140000
H      -46.20230000     -32.73630000     -75.69300000
H      -47.99120000     -33.03940000     -75.52610000
S      -48.20830000     -34.74590000     -70.02630000
S      -47.28940000     -31.43710000     -73.97200000
C      -46.43330000     -34.67450000     -69.52160000
H      -46.24380000     -35.65430000     -68.90160000
H      -45.69650000     -34.84970000     -70.35010000
C      -45.64080000     -31.16720000     -73.07290000
H      -45.56340000     -30.10780000     -72.76210000
H      -44.90510000     -31.42600000     -73.86170000
C      -45.54030000     -32.05230000     -71.81240000
H      -46.42350000     -31.89550000     -71.17020000
H      -45.49340000     -33.10420000     -72.15270000
C      -46.01120000     -33.46330000     -68.77110000
H      -46.19000000     -33.71510000     -67.68280000
H      -46.61860000     -32.51220000     -69.00230000
C      -44.58790000     -33.13390000     -68.79320000
C      -43.83140000     -33.42030000     -67.69750000
C      -43.80210000     -32.58070000     -69.88620000
H      -44.27850000     -33.58430000     -66.75150000
C      -42.46440000     -32.41640000     -69.55190000
C      -44.15540000     -31.89720000     -71.15680000
C      -43.12260000     -31.19450000     -71.68530000
S      -42.09050000     -33.00640000     -67.90390000
S      -41.59400000     -31.44700000     -70.75020000
H      -43.13730000     -30.53990000     -72.55500000
