40
Properties=species:S:1:pos:R:3 #=T CELL(abcABC):=T 1.889726e+02=T 90.00000=T Traj:=T positionsangstrom=T Step:=T 0=T Bead:=T pbc="F F F"
C      -45.28390000     -34.68120000     -74.31170000
C      -46.65720000     -34.47010000     -74.11020000
C      -47.34750000     -35.19070000     -73.08260000
C      -46.50340000     -36.00600000     -72.18830000
C      -45.18400000     -36.19610000     -72.44930000
C      -44.55370000     -35.49020000     -73.44820000
H      -44.71880000     -34.11860000     -75.05230000
H      -48.36050000     -35.09300000     -72.83400000
H      -44.59710000     -36.93490000     -71.89510000
H      -43.47640000     -35.55160000     -73.59100000
C      -47.23660000     -36.73360000     -71.07100000
H      -46.62070000     -37.59960000     -70.58670000
H      -48.13290000     -37.22830000     -71.45860000
C      -47.45870000     -33.53420000     -74.97180000
H      -47.03320000     -33.57600000     -75.94660000
H      -48.51280000     -33.79690000     -74.98710000
S      -47.81350000     -35.49580000     -69.81110000
S      -47.44060000     -31.77110000     -74.36910000
C      -46.15880000     -34.90880000     -69.27260000
H      -45.72100000     -35.43620000     -68.42290000
H      -45.39710000     -35.09210000     -70.07040000
C      -45.78050000     -31.55750000     -73.46410000
H      -45.53630000     -30.45580000     -73.61440000
H      -45.08270000     -32.22420000     -74.00010000
C      -45.79720000     -31.91850000     -72.00440000
H      -46.58180000     -31.51450000     -71.36670000
H      -46.05180000     -33.02570000     -71.99480000
C      -46.38000000     -33.37580000     -68.94470000
H      -46.92340000     -33.30730000     -67.97540000
H      -46.96140000     -32.92540000     -69.72020000
C      -45.00230000     -32.76290000     -68.82510000
C      -44.19720000     -32.92680000     -67.68350000
C      -44.22290000     -32.24170000     -69.95490000
H      -44.54390000     -33.18390000     -66.64150000
C      -42.92880000     -31.92390000     -69.55850000
C      -44.47480000     -31.75050000     -71.32650000
C      -43.34520000     -31.31180000     -71.93270000
S      -42.52680000     -32.43120000     -67.97640000
S      -41.95320000     -31.19090000     -70.77860000
H      -43.26350000     -30.90580000     -72.95690000
