40
Properties=species:S:1:pos:R:3 #=T CELL(abcABC):=T 1.889726e+02=T 90.00000=T Traj:=T positionsangstrom=T Step:=T 0=T Bead:=T pbc="F F F"
C      -47.33740000     -32.86250000     -67.13800000
C      -47.20010000     -33.80540000     -68.16460000
C      -47.38810000     -33.41340000     -69.48620000
C      -47.95570000     -32.15160000     -69.77450000
C      -48.05640000     -31.21110000     -68.78910000
C      -47.81380000     -31.55940000     -67.45470000
H      -47.12660000     -33.18700000     -66.08790000
H      -47.25650000     -34.22420000     -70.28720000
H      -48.35040000     -30.21590000     -69.07860000
H      -47.82540000     -30.72030000     -66.72720000
C      -48.24930000     -31.97200000     -71.28170000
H      -48.66660000     -30.98340000     -71.59160000
H      -48.92830000     -32.76890000     -71.61270000
C      -46.68200000     -35.16720000     -67.82370000
H      -46.92500000     -35.56550000     -66.85300000
H      -46.92460000     -35.77560000     -68.56320000
S      -46.87760000     -32.03350000     -72.56470000
S      -44.73140000     -35.21070000     -67.77680000
C      -45.67910000     -30.78010000     -71.86080000
H      -45.92890000     -29.83730000     -72.29000000
H      -46.01340000     -30.66880000     -70.83730000
C      -44.37440000     -35.47160000     -69.60650000
H      -45.23560000     -36.11620000     -69.87500000
H      -43.35060000     -35.93330000     -69.52370000
C      -44.27830000     -34.16410000     -70.43100000
H      -45.09750000     -33.44270000     -70.21110000
H      -43.35390000     -33.64120000     -70.18420000
C      -44.12880000     -31.08620000     -71.96060000
H      -43.70080000     -31.43390000     -70.99350000
H      -43.58070000     -30.11440000     -72.12260000
C      -43.79310000     -32.05410000     -72.99720000
C      -43.46140000     -31.64090000     -74.28610000
C      -43.78710000     -33.47330000     -72.91680000
H      -43.40940000     -30.66250000     -74.77020000
C      -43.47510000     -34.06630000     -74.17870000
C      -44.10830000     -34.44370000     -71.91680000
C      -44.16350000     -35.73980000     -72.44600000
S      -43.22110000     -32.93870000     -75.44970000
S      -43.67030000     -35.80100000     -74.10010000
H      -44.34990000     -36.60370000     -71.90330000
