40
Properties=species:S:1:pos:R:3 #=T CELL(abcABC):=T 1.889726e+02=T 90.00000=T Traj:=T positionsangstrom=T Step:=T 0=T Bead:=T pbc="F F F"
C      -44.41080000     -35.29170000     -74.56270000
C      -45.78960000     -35.05230000     -74.39260000
C      -46.40560000     -35.63690000     -73.30830000
C      -45.74090000     -36.54760000     -72.50100000
C      -44.32290000     -36.75030000     -72.67000000
C      -43.68930000     -36.12220000     -73.74460000
H      -43.94630000     -34.87590000     -75.48260000
H      -47.44030000     -35.26750000     -73.15210000
H      -43.98810000     -37.69560000     -72.19050000
H      -42.76670000     -36.56910000     -74.15470000
C      -46.45250000     -37.27630000     -71.30630000
H      -45.71310000     -37.87420000     -70.78120000
H      -47.29180000     -37.92070000     -71.69830000
C      -46.56870000     -34.17860000     -75.31760000
H      -45.98130000     -33.79640000     -76.13240000
H      -47.35510000     -34.66200000     -75.92870000
S      -47.18400000     -36.05810000     -70.17930000
S      -47.35490000     -32.79450000     -74.40510000
C      -45.78850000     -35.05770000     -69.53970000
H      -45.27040000     -35.66770000     -68.79970000
H      -45.03820000     -34.93120000     -70.32660000
C      -45.93030000     -32.00390000     -73.45800000
H      -45.94780000     -30.94660000     -73.62640000
H      -45.07470000     -32.52430000     -73.87200000
C      -45.90170000     -32.29410000     -71.97560000
H      -46.95830000     -32.13220000     -71.56210000
H      -45.66590000     -33.30900000     -71.78460000
C      -46.34040000     -33.80350000     -68.95780000
H      -46.82320000     -34.04900000     -67.98510000
H      -47.10560000     -33.25560000     -69.55010000
C      -45.22020000     -32.72610000     -68.71710000
C      -44.77720000     -32.38420000     -67.44590000
C      -44.70280000     -31.84090000     -69.73670000
H      -45.13030000     -32.95510000     -66.56200000
C      -43.80960000     -30.87470000     -69.19970000
C      -44.92670000     -31.49600000     -71.11570000
C      -44.17040000     -30.42580000     -71.60700000
S      -43.58230000     -31.03540000     -67.50940000
S      -43.13460000     -29.75050000     -70.38510000
H      -44.08310000     -30.16290000     -72.65180000
