40
Properties=species:S:1:pos:R:3 #=T CELL(abcABC):=T 1.889726e+02=T 90.00000=T Traj:=T positionsangstrom=T Step:=T 0=T Bead:=T pbc="F F F"
C      -47.34600000     -32.14080000     -74.00990000
C      -47.63720000     -31.41120000     -72.90270000
C      -46.66060000     -30.67700000     -72.22790000
C      -45.35830000     -30.62830000     -72.67560000
C      -45.03870000     -31.43980000     -73.85190000
C      -46.00790000     -32.21070000     -74.44370000
H      -48.07220000     -32.56090000     -74.66460000
H      -46.98230000     -30.13190000     -71.33460000
H      -44.01880000     -31.32700000     -74.29660000
H      -45.85290000     -32.79540000     -75.38590000
C      -44.36440000     -29.72890000     -72.04020000
H      -44.79690000     -29.34120000     -71.07320000
H      -44.13920000     -28.75020000     -72.56000000
C      -49.11810000     -31.41170000     -72.41240000
H      -49.60680000     -30.53080000     -72.19560000
H      -49.63200000     -32.04710000     -73.11140000
S      -42.70430000     -30.51610000     -71.96150000
S      -49.18620000     -32.32780000     -70.80310000
C      -43.23900000     -32.06740000     -71.08810000
H      -42.48640000     -32.15220000     -70.24850000
H      -44.24310000     -31.97730000     -70.61810000
C      -47.95970000     -33.78180000     -71.18620000
H      -48.03810000     -33.87670000     -72.21280000
H      -48.38510000     -34.70730000     -70.69320000
C      -46.60920000     -33.47880000     -70.48560000
H      -46.07230000     -32.76080000     -71.12250000
H      -46.79920000     -32.96130000     -69.49650000
C      -43.21100000     -33.28930000     -71.98240000
H      -42.27670000     -33.35860000     -72.48590000
H      -43.82870000     -33.20790000     -72.77960000
C      -43.31790000     -34.60830000     -71.27080000
C      -42.21780000     -35.47740000     -71.28780000
C      -44.41060000     -35.09440000     -70.46520000
H      -41.21920000     -35.50770000     -71.70300000
C      -44.08620000     -36.30930000     -69.87720000
C      -45.74820000     -34.64590000     -70.03820000
C      -46.33280000     -35.56090000     -69.21310000
S      -42.51560000     -36.82870000     -70.17190000
S      -45.38980000     -36.99070000     -68.87780000
H      -47.29950000     -35.40430000     -68.72680000
