40
Properties=species:S:1:pos:R:3 #=T CELL(abcABC):=T 1.889726e+02=T 90.00000=T Traj:=T positionsangstrom=T Step:=T 0=T Bead:=T pbc="F F F"
C      -44.68370000     -35.27440000     -74.53020000
C      -45.94990000     -34.92450000     -74.34910000
C      -46.75660000     -35.47490000     -73.41650000
C      -46.24300000     -36.41740000     -72.49420000
C      -44.92690000     -36.82290000     -72.67850000
C      -44.10730000     -36.21210000     -73.65170000
H      -44.06630000     -34.85130000     -75.33870000
H      -47.75420000     -35.06680000     -73.43670000
H      -44.38590000     -37.52770000     -72.05100000
H      -43.02370000     -36.35020000     -73.64980000
C      -47.16760000     -37.04220000     -71.45360000
H      -46.67760000     -38.02310000     -71.14800000
H      -48.17560000     -37.14870000     -71.89490000
C      -46.60120000     -33.88230000     -75.20250000
H      -45.90350000     -33.56180000     -75.93740000
H      -47.41000000     -34.36170000     -75.74750000
S      -47.49570000     -35.86780000     -70.03230000
S      -47.46250000     -32.36040000     -74.30780000
C      -45.82930000     -35.12610000     -69.49980000
H      -45.30170000     -35.87040000     -68.90810000
H      -45.20860000     -34.85960000     -70.32450000
C      -46.10340000     -31.61130000     -73.30980000
H      -46.43170000     -30.57810000     -73.15480000
H      -45.26220000     -31.72590000     -74.00560000
C      -45.86190000     -32.25850000     -71.94980000
H      -46.82040000     -31.96490000     -71.29870000
H      -45.70000000     -33.29530000     -72.03730000
C      -46.20710000     -33.77240000     -68.79610000
H      -46.61120000     -33.98190000     -67.80270000
H      -47.04820000     -33.24780000     -69.34130000
C      -45.00190000     -32.78140000     -68.78490000
C      -44.34180000     -32.66610000     -67.59000000
C      -44.40950000     -32.00060000     -69.83050000
H      -44.39560000     -33.26840000     -66.66830000
C      -43.45370000     -31.15690000     -69.30930000
C      -44.67550000     -31.65210000     -71.20560000
C      -43.82580000     -30.69090000     -71.64690000
S      -43.11660000     -31.34220000     -67.65620000
S      -42.65330000     -30.15030000     -70.45660000
H      -43.92090000     -30.24950000     -72.62380000
