40
Properties=species:S:1:pos:R:3 #=T CELL(abcABC):=T 1.889726e+02=T 90.00000=T Traj:=T positionsangstrom=T Step:=T 0=T Bead:=T pbc="F F F"
C      -44.26260000     -36.66880000     -72.51410000
C      -43.88360000     -35.36300000     -72.97530000
C      -44.78000000     -34.72500000     -73.79360000
C      -45.95400000     -35.32630000     -74.23640000
C      -46.31970000     -36.64250000     -73.83180000
C      -45.38790000     -37.30410000     -72.98330000
H      -43.49930000     -37.25180000     -72.04040000
H      -44.57990000     -33.63030000     -74.12410000
H      -47.19500000     -37.24880000     -74.17160000
H      -45.57860000     -38.40010000     -72.68750000
C      -46.88090000     -34.60270000     -75.13630000
H      -47.96830000     -34.82060000     -74.99300000
H      -46.64350000     -34.73350000     -76.16320000
C      -42.54430000     -34.74280000     -72.85540000
H      -41.83460000     -35.27420000     -73.44130000
H      -42.54940000     -33.73220000     -73.21190000
S      -46.74060000     -32.78400000     -74.87530000
S      -41.70190000     -34.74100000     -71.13840000
C      -47.14680000     -32.52740000     -73.06450000
H      -47.62120000     -31.53680000     -73.09720000
H      -47.85960000     -33.24290000     -72.70100000
C      -43.06780000     -33.91540000     -70.20880000
H      -42.87030000     -34.10920000     -69.17920000
H      -44.06830000     -34.26110000     -70.37130000
C      -43.20720000     -32.43590000     -70.39270000
H      -42.27050000     -31.89990000     -70.25390000
H      -43.64270000     -32.33570000     -71.41230000
C      -45.98850000     -32.51490000     -72.11220000
H      -45.26180000     -31.76910000     -72.41030000
H      -45.52340000     -33.46620000     -72.20550000
C      -46.52080000     -32.25250000     -70.77450000
C      -47.88700000     -32.33940000     -70.36930000
C      -45.67280000     -31.89820000     -69.64220000
H      -48.75310000     -32.60970000     -70.87370000
C      -46.40390000     -31.55380000     -68.50060000
C      -44.23730000     -31.92310000     -69.38900000
C      -43.91000000     -31.48790000     -68.09220000
S      -48.13280000     -31.70870000     -68.73110000
S      -45.35850000     -31.19290000     -67.09390000
H      -42.93430000     -31.54280000     -67.58530000
