40
Properties=species:S:1:pos:R:3 #=T CELL(abcABC):=T 1.889726e+02=T 90.00000=T Traj:=T positionsangstrom=T Step:=T 0=T Bead:=T pbc="F F F"
C      -46.73320000     -31.77850000     -67.21960000
C      -46.45900000     -32.98290000     -67.89010000
C      -47.03850000     -33.23180000     -69.12560000
C      -47.98480000     -32.34020000     -69.60610000
C      -48.31880000     -31.18030000     -68.87700000
C      -47.70360000     -30.91010000     -67.66510000
H      -46.23000000     -31.63000000     -66.26450000
H      -46.77160000     -34.18000000     -69.63550000
H      -49.16490000     -30.55500000     -69.28850000
H      -47.88390000     -29.96270000     -67.15090000
C      -48.59350000     -32.63130000     -70.90840000
H      -49.31950000     -31.90020000     -71.17780000
H      -49.18250000     -33.54420000     -70.88540000
C      -45.58210000     -33.95280000     -67.15580000
H      -45.57550000     -33.84000000     -66.10100000
H      -45.94080000     -35.01180000     -67.38810000
S      -47.25750000     -32.93380000     -72.26550000
S      -43.83610000     -33.77560000     -67.66150000
C      -46.52720000     -31.19140000     -72.49430000
H      -47.05560000     -30.57530000     -73.25390000
H      -46.71870000     -30.66750000     -71.56030000
C      -43.87060000     -34.54790000     -69.41150000
H      -44.87910000     -34.99480000     -69.53000000
H      -43.06580000     -35.30810000     -69.47090000
C      -43.63280000     -33.54370000     -70.46820000
H      -44.51200000     -32.80670000     -70.54190000
H      -42.72510000     -32.96200000     -70.23870000
C      -45.03710000     -31.28400000     -72.93770000
H      -44.39560000     -31.11700000     -72.08000000
H      -44.80040000     -30.36070000     -73.58950000
C      -44.66320000     -32.54950000     -73.69910000
C      -44.83790000     -32.60730000     -75.04620000
C      -44.05060000     -33.72710000     -73.19140000
H      -45.25950000     -31.85860000     -75.71270000
C      -43.87860000     -34.66210000     -74.19890000
C      -43.58920000     -34.25870000     -71.83190000
C      -43.22350000     -35.55090000     -71.94730000
S      -44.12970000     -33.99940000     -75.85100000
S      -43.34760000     -36.21320000     -73.63050000
H      -42.77480000     -36.19070000     -71.17180000
