40
Properties=species:S:1:pos:R:3 #=T CELL(abcABC):=T 1.889726e+02=T 90.00000=T Traj:=T positionsangstrom=T Step:=T 0=T Bead:=T pbc="F F F"
C      -47.17710000     -32.43220000     -67.11430000
C      -46.94780000     -33.50140000     -68.05260000
C      -47.43160000     -33.34720000     -69.36190000
C      -48.10810000     -32.14290000     -69.74410000
C      -48.24410000     -31.09370000     -68.83680000
C      -47.67610000     -31.23310000     -67.56110000
H      -46.92090000     -32.58950000     -66.07590000
H      -47.35130000     -34.18630000     -70.10560000
H      -48.77370000     -30.19320000     -68.99620000
H      -47.77240000     -30.42570000     -66.87150000
C      -48.59360000     -32.12460000     -71.19780000
H      -49.17840000     -31.25130000     -71.57240000
H      -49.21520000     -32.98820000     -71.39860000
C      -46.07020000     -34.64090000     -67.70650000
H      -46.27590000     -34.89060000     -66.63250000
H      -46.28310000     -35.47830000     -68.32040000
S      -47.02060000     -32.46190000     -72.24560000
S      -44.21520000     -34.29880000     -67.75370000
C      -46.01540000     -30.88600000     -72.20610000
H      -46.36910000     -30.18400000     -73.00000000
H      -46.28070000     -30.34590000     -71.29230000
C      -43.77460000     -35.04490000     -69.39020000
H      -44.34900000     -35.93430000     -69.52110000
H      -42.67270000     -35.19960000     -69.41150000
C      -44.11150000     -34.03890000     -70.48740000
H      -45.16530000     -33.74370000     -70.33510000
H      -43.56890000     -33.12980000     -70.29790000
C      -44.55050000     -31.20510000     -72.40660000
H      -43.97410000     -31.34360000     -71.47710000
H      -44.00900000     -30.29520000     -72.77310000
C      -44.19780000     -32.25270000     -73.33580000
C      -44.09730000     -32.02530000     -74.67040000
C      -43.84880000     -33.64720000     -73.06580000
H      -44.20530000     -31.11750000     -75.21940000
C      -43.64200000     -34.37990000     -74.20230000
C      -43.91080000     -34.54960000     -71.88830000
C      -43.68540000     -35.87270000     -72.17170000
S      -43.83930000     -33.47370000     -75.63340000
S      -43.36800000     -36.05190000     -73.88830000
H      -43.68690000     -36.66170000     -71.42400000
