40
Properties=species:S:1:pos:R:3 #=T CELL(abcABC):=T 1.889726e+02=T 90.00000=T Traj:=T positionsangstrom=T Step:=T 0=T Bead:=T pbc="F F F"
C      -47.04810000     -32.20570000     -66.98970000
C      -46.78320000     -33.31040000     -67.82540000
C      -47.29630000     -33.39410000     -69.13020000
C      -47.86920000     -32.27480000     -69.69020000
C      -48.24110000     -31.18740000     -68.87070000
C      -47.78210000     -31.13390000     -67.56130000
H      -46.59730000     -32.02780000     -66.00410000
H      -47.07970000     -34.23060000     -69.76890000
H      -48.68330000     -30.32630000     -69.28330000
H      -48.14430000     -30.25780000     -67.00770000
C      -48.32590000     -32.22800000     -71.20780000
H      -48.56210000     -31.16160000     -71.44900000
H      -49.23800000     -32.77510000     -71.29250000
C      -45.99030000     -34.44710000     -67.31180000
H      -46.17770000     -34.60780000     -66.11720000
H      -46.29240000     -35.35680000     -67.78760000
S      -47.07360000     -32.61240000     -72.38640000
S      -44.20650000     -34.09400000     -67.59080000
C      -46.17160000     -31.07110000     -72.38920000
H      -46.43550000     -30.42240000     -73.17340000
H      -46.26440000     -30.54410000     -71.39470000
C      -43.87220000     -34.75350000     -69.30830000
H      -44.30740000     -35.73680000     -69.49800000
H      -42.76710000     -34.93350000     -69.29540000
C      -44.18260000     -33.87030000     -70.48150000
H      -45.24440000     -33.62560000     -70.59070000
H      -43.73860000     -32.82510000     -70.29770000
C      -44.64260000     -31.31590000     -72.50830000
H      -44.27950000     -31.57450000     -71.49230000
H      -44.20080000     -30.42400000     -72.89370000
C      -44.41360000     -32.37970000     -73.47410000
C      -44.45850000     -32.16560000     -74.88990000
C      -43.97010000     -33.71740000     -73.11600000
H      -44.72900000     -31.30220000     -75.47260000
C      -43.77450000     -34.49850000     -74.32360000
C      -43.75130000     -34.42410000     -71.90140000
C      -43.22860000     -35.73240000     -72.13140000
S      -44.07100000     -33.60270000     -75.81770000
S      -43.20800000     -36.13440000     -73.84830000
H      -42.96270000     -36.49820000     -71.46350000
