40
Properties=species:S:1:pos:R:3 #=T CELL(abcABC):=T 1.889726e+02=T 90.00000=T Traj:=T positionsangstrom=T Step:=T 0=T Bead:=T pbc="F F F"
C      -43.33240000     -35.13270000     -73.97040000
C      -44.59720000     -35.75750000     -73.81410000
C      -44.95820000     -36.25420000     -72.53260000
C      -43.95960000     -36.37640000     -71.56030000
C      -42.67060000     -35.81000000     -71.78320000
C      -42.37790000     -35.16200000     -72.93910000
H      -43.03080000     -34.74210000     -74.93270000
H      -45.95250000     -36.53730000     -72.30080000
H      -42.02610000     -35.68380000     -70.93950000
H      -41.37880000     -34.67950000     -73.14970000
C      -44.35240000     -36.97740000     -70.21400000
H      -43.53660000     -36.92570000     -69.51660000
H      -44.42990000     -38.08140000     -70.32830000
C      -45.67310000     -35.55440000     -75.03270000
H      -45.20350000     -34.92400000     -75.81150000
H      -46.17470000     -36.38860000     -75.47140000
S      -45.95040000     -36.30550000     -69.48680000
S      -47.19900000     -34.60230000     -74.30880000
C      -45.32060000     -34.63490000     -69.15350000
H      -44.76950000     -34.60850000     -68.27000000
H      -44.67950000     -34.24650000     -69.90850000
C      -46.45210000     -33.06040000     -73.62420000
H      -46.98320000     -32.25630000     -74.08770000
H      -45.48560000     -33.07900000     -74.05470000
C      -46.49370000     -33.05710000     -72.09460000
H      -47.51150000     -33.30330000     -71.75970000
H      -45.80580000     -33.82750000     -71.76400000
C      -46.48020000     -33.60290000     -68.93320000
H      -47.06970000     -33.80600000     -68.01330000
H      -47.17740000     -33.71830000     -69.80020000
C      -46.02420000     -32.07930000     -69.01110000
C      -45.69320000     -31.32090000     -67.89160000
C      -45.74320000     -31.43770000     -70.24850000
H      -45.86130000     -31.49790000     -66.82170000
C      -45.16450000     -30.17490000     -70.03660000
C      -45.95970000     -31.71180000     -71.61550000
C      -45.50680000     -30.64610000     -72.43120000
S      -45.07670000     -29.78240000     -68.34060000
S      -44.87770000     -29.32000000     -71.52620000
H      -45.62450000     -30.52810000     -73.47370000
