40
Properties=species:S:1:pos:R:3 #=T CELL(abcABC):=T 1.889726e+02=T 90.00000=T Traj:=T positionsangstrom=T Step:=T 0=T Bead:=T pbc="F F F"
C      -41.62170000     -34.84730000     -69.73210000
C      -42.69260000     -34.05800000     -69.24250000
C      -42.85060000     -32.73390000     -69.61530000
C      -42.09260000     -32.14990000     -70.64750000
C      -41.03260000     -32.90300000     -71.14750000
C      -40.79770000     -34.20670000     -70.65340000
H      -41.34000000     -35.85900000     -69.34540000
H      -43.69110000     -32.19510000     -69.18890000
H      -40.43530000     -32.54990000     -71.96420000
H      -39.97600000     -34.77480000     -71.08230000
C      -42.25920000     -30.75280000     -71.14330000
H      -41.27650000     -30.23470000     -71.21890000
H      -42.94870000     -30.16670000     -70.55720000
C      -43.63350000     -34.64180000     -68.19110000
H      -43.11500000     -34.78970000     -67.22170000
H      -44.44150000     -33.96500000     -67.79950000
S      -42.86230000     -30.68610000     -72.85510000
S      -44.35630000     -36.24620000     -68.75480000
C      -44.72080000     -30.89620000     -72.78750000
H      -45.17120000     -30.36090000     -71.91420000
H      -45.13620000     -30.28420000     -73.56740000
C      -45.96330000     -35.51200000     -69.34600000
H      -46.22390000     -34.79390000     -68.55040000
H      -46.76460000     -36.26090000     -69.35530000
C      -45.76620000     -34.92830000     -70.74340000
H      -45.03950000     -34.12660000     -70.81530000
H      -45.32290000     -35.63660000     -71.44080000
C      -45.13240000     -32.33060000     -73.01350000
H      -44.58190000     -33.00180000     -72.32020000
H      -44.73530000     -32.56970000     -73.96950000
C      -46.64710000     -32.39690000     -72.90510000
C      -47.53530000     -31.50580000     -73.46510000
C      -47.39320000     -33.47660000     -72.24550000
H      -47.30710000     -30.58670000     -73.95400000
C      -48.70220000     -33.40980000     -72.49560000
C      -47.08660000     -34.55010000     -71.33950000
C      -48.19350000     -35.29400000     -71.08630000
S      -49.21640000     -32.01360000     -73.32350000
S      -49.68950000     -34.76090000     -71.87030000
H      -48.20410000     -36.27700000     -70.64360000
