40
Properties=species:S:1:pos:R:3 #=T CELL(abcABC):=T 1.889726e+02=T 90.00000=T Traj:=T positionsangstrom=T Step:=T 0=T Bead:=T pbc="F F F"
C      -43.39580000     -35.17770000     -73.99770000
C      -44.64710000     -35.79130000     -73.82810000
C      -44.94580000     -36.30060000     -72.56740000
C      -44.01970000     -36.25210000     -71.50300000
C      -42.76010000     -35.65120000     -71.64800000
C      -42.47670000     -35.18090000     -72.90070000
H      -43.05660000     -34.59890000     -74.81880000
H      -45.88790000     -36.83650000     -72.43940000
H      -42.04190000     -35.66100000     -70.85350000
H      -41.50580000     -34.79850000     -73.15330000
C      -44.50810000     -37.03390000     -70.32570000
H      -43.69700000     -37.19070000     -69.57110000
H      -44.97460000     -38.00310000     -70.59320000
C      -45.68060000     -35.79000000     -74.89140000
H      -45.25550000     -35.48210000     -75.82590000
H      -46.13610000     -36.80500000     -75.03770000
S      -45.93080000     -36.25790000     -69.41110000
S      -47.12910000     -34.72760000     -74.39050000
C      -45.13100000     -34.52120000     -69.16390000
H      -44.29940000     -34.70150000     -68.41670000
H      -44.51520000     -34.19980000     -70.03880000
C      -46.20720000     -33.20620000     -73.79680000
H      -46.52110000     -32.26450000     -74.28830000
H      -45.12530000     -33.40400000     -74.04120000
C      -46.45340000     -32.96210000     -72.27920000
H      -47.52670000     -32.80280000     -72.18660000
H      -46.21570000     -33.92280000     -71.65480000
C      -46.26850000     -33.56200000     -68.81580000
H      -46.50820000     -33.76640000     -67.76700000
H      -47.23670000     -33.79910000     -69.34280000
C      -45.85040000     -32.14150000     -68.94030000
C      -45.66320000     -31.34150000     -67.86850000
C      -45.59070000     -31.48680000     -70.22180000
H      -45.70140000     -31.70990000     -66.84090000
C      -45.29440000     -30.11610000     -70.03730000
C      -45.80490000     -31.77510000     -71.67890000
C      -45.49570000     -30.64600000     -72.41670000
S      -45.24140000     -29.65270000     -68.37600000
S      -45.03840000     -29.25270000     -71.48770000
H      -45.73990000     -30.47420000     -73.49880000
