40
Properties=species:S:1:pos:R:3 #=T CELL(abcABC):=T 1.889726e+02=T 90.00000=T Traj:=T positionsangstrom=T Step:=T 0=T Bead:=T pbc="F F F"
C      -43.16760000     -35.11750000     -73.77810000
C      -44.56310000     -35.41350000     -73.74990000
C      -45.09620000     -36.11570000     -72.65560000
C      -44.27080000     -36.70490000     -71.66910000
C      -42.89300000     -36.46160000     -71.70670000
C      -42.35720000     -35.66840000     -72.75620000
H      -42.68840000     -34.55280000     -74.52860000
H      -46.26290000     -36.39150000     -72.60670000
H      -42.22190000     -36.93810000     -71.05310000
H      -41.33120000     -35.37250000     -72.63890000
C      -44.80180000     -37.46880000     -70.51830000
H      -43.96870000     -37.57160000     -69.78040000
H      -45.38520000     -38.35380000     -70.79580000
C      -45.44760000     -35.04390000     -74.95690000
H      -44.96400000     -34.27250000     -75.55250000
H      -45.56440000     -35.85970000     -75.54290000
S      -46.15260000     -36.26050000     -69.61400000
S      -47.19040000     -34.47510000     -74.46560000
C      -45.30470000     -34.64320000     -69.30080000
H      -44.50740000     -34.68420000     -68.52870000
H      -44.84600000     -34.35680000     -70.26370000
C      -46.84340000     -32.80540000     -73.71390000
H      -47.68740000     -32.14520000     -73.85810000
H      -45.96780000     -32.39210000     -74.24260000
C      -46.53520000     -32.82780000     -72.18350000
H      -47.43840000     -33.18390000     -71.71170000
H      -45.80530000     -33.58240000     -71.92520000
C      -46.41180000     -33.59150000     -69.03120000
H      -46.77890000     -33.93040000     -68.07230000
H      -47.13530000     -33.67610000     -69.87210000
C      -45.95310000     -32.11110000     -68.97760000
C      -45.40820000     -31.55580000     -67.89760000
C      -45.65700000     -31.38820000     -70.19020000
H      -45.54640000     -31.89230000     -66.86850000
C      -45.15120000     -30.10600000     -69.88480000
C      -46.00480000     -31.57410000     -71.59800000
C      -45.56260000     -30.50220000     -72.32450000
S      -44.70960000     -29.94580000     -68.23260000
S      -44.76450000     -29.17790000     -71.32050000
H      -45.74760000     -30.31840000     -73.42410000
