40
Properties=species:S:1:pos:R:3 #=T CELL(abcABC):=T 1.889726e+02=T 90.00000=T Traj:=T positionsangstrom=T Step:=T 0=T Bead:=T pbc="F F F"
C      -43.29600000     -35.25080000     -73.73650000
C      -44.59940000     -35.71020000     -73.56980000
C      -44.99090000     -36.38430000     -72.39830000
C      -44.01540000     -36.69270000     -71.39210000
C      -42.67810000     -36.26800000     -71.54780000
C      -42.34410000     -35.50760000     -72.71890000
H      -43.16470000     -34.70980000     -74.71830000
H      -46.04440000     -36.72590000     -72.41500000
H      -41.91620000     -36.48040000     -70.76510000
H      -41.35300000     -35.10550000     -72.74540000
C      -44.28070000     -37.12560000     -69.99240000
H      -43.42270000     -37.14990000     -69.36180000
H      -44.66930000     -38.09530000     -69.85360000
C      -45.59580000     -35.58480000     -74.72670000
H      -45.17420000     -34.86150000     -75.50670000
H      -45.88230000     -36.55110000     -75.12430000
S      -45.62050000     -36.13870000     -69.15180000
S      -47.26850000     -34.85970000     -74.34800000
C      -45.11940000     -34.35070000     -69.49730000
H      -44.13900000     -34.07710000     -69.08940000
H      -44.95500000     -34.23410000     -70.56550000
C      -46.89310000     -33.11740000     -73.87850000
H      -47.79580000     -32.62310000     -73.99080000
H      -46.01430000     -32.80010000     -74.51890000
C      -46.39340000     -33.00430000     -72.40940000
H      -47.16080000     -33.52430000     -71.85110000
H      -45.42920000     -33.56760000     -72.42880000
C      -46.24340000     -33.47120000     -68.93760000
H      -46.27130000     -33.69580000     -67.80360000
H      -47.20460000     -33.83760000     -69.28730000
C      -45.94450000     -32.04290000     -69.10740000
C      -45.56270000     -31.26350000     -68.07510000
C      -45.76660000     -31.35050000     -70.40060000
H      -45.65780000     -31.54040000     -67.06660000
C      -45.34320000     -30.03140000     -70.20570000
C      -45.98660000     -31.65610000     -71.78600000
C      -45.78470000     -30.52740000     -72.54420000
S      -44.99260000     -29.66850000     -68.48160000
S      -45.21200000     -29.08310000     -71.65690000
H      -45.83690000     -30.51350000     -73.62640000
