40
Properties=species:S:1:pos:R:3 #=T CELL(abcABC):=T 1.889726e+02=T 90.00000=T Traj:=T positionsangstrom=T Step:=T 0=T Bead:=T pbc="F F F"
C      -43.45070000     -34.96950000     -73.53120000
C      -44.62820000     -35.68390000     -73.59720000
C      -44.93680000     -36.35240000     -72.39340000
C      -44.13160000     -36.37430000     -71.25010000
C      -42.96620000     -35.62200000     -71.28980000
C      -42.56300000     -34.91860000     -72.45520000
H      -43.22660000     -34.56260000     -74.47370000
H      -45.82440000     -36.96370000     -72.44930000
H      -42.37960000     -35.75940000     -70.44220000
H      -41.56020000     -34.47090000     -72.54500000
C      -44.59790000     -37.08510000     -70.05600000
H      -43.76810000     -37.39770000     -69.45040000
H      -45.18790000     -37.91830000     -70.42620000
C      -45.44440000     -35.85820000     -74.86640000
H      -44.99170000     -35.51200000     -75.79780000
H      -45.65870000     -36.94290000     -75.00660000
S      -45.84800000     -36.11040000     -69.01150000
S      -47.12140000     -34.97310000     -74.63020000
C      -45.09750000     -34.47660000     -68.97170000
H      -44.37890000     -34.29280000     -68.11560000
H      -44.60660000     -34.39850000     -69.91700000
C      -46.67570000     -33.29000000     -73.83160000
H      -47.43650000     -32.61330000     -74.28410000
H      -45.73040000     -32.89370000     -74.35510000
C      -46.52310000     -33.20390000     -72.29100000
H      -47.38530000     -33.41300000     -71.73090000
H      -45.80680000     -33.86170000     -71.85490000
C      -46.27560000     -33.42690000     -68.92100000
H      -46.73740000     -33.44560000     -67.90370000
H      -47.10910000     -33.89830000     -69.54800000
C      -45.78500000     -32.05790000     -69.17580000
C      -45.28120000     -31.28640000     -68.17290000
C      -45.68510000     -31.36940000     -70.41920000
H      -45.16680000     -31.69520000     -67.15860000
C      -45.19580000     -30.08390000     -70.30320000
C      -46.06830000     -31.76130000     -71.76290000
C      -45.96390000     -30.67060000     -72.60760000
S      -44.68570000     -29.69240000     -68.63630000
S      -45.23880000     -29.27640000     -71.79750000
H      -46.34400000     -30.55250000     -73.59860000
