40
Properties=species:S:1:pos:R:3 #=T CELL(abcABC):=T 1.889726e+02=T 90.00000=T Traj:=T positionsangstrom=T Step:=T 0=T Bead:=T pbc="F F F"
C      -41.45670000     -34.82280000     -69.80780000
C      -42.50380000     -34.12140000     -69.23550000
C      -42.76620000     -32.80010000     -69.65980000
C      -42.04230000     -32.19650000     -70.68610000
C      -40.96020000     -32.96120000     -71.28260000
C      -40.59800000     -34.18120000     -70.73200000
H      -41.26200000     -35.83930000     -69.44570000
H      -43.58230000     -32.24410000     -69.07340000
H      -40.22760000     -32.58400000     -71.95660000
H      -39.73350000     -34.70910000     -71.15220000
C      -42.19800000     -30.75520000     -71.03990000
H      -41.24900000     -30.27210000     -71.06450000
H      -42.91800000     -30.29320000     -70.30310000
C      -43.31650000     -34.71090000     -68.09310000
H      -42.57300000     -35.02680000     -67.36620000
H      -44.06130000     -34.03730000     -67.68450000
S      -42.89600000     -30.53080000     -72.73090000
S      -44.22990000     -36.21440000     -68.66090000
C      -44.67290000     -30.99870000     -72.33660000
H      -44.68100000     -31.27640000     -71.28850000
H      -45.21450000     -30.10860000     -72.67960000
C      -45.88850000     -35.78650000     -69.43340000
H      -46.44660000     -35.27590000     -68.63330000
H      -46.31200000     -36.75380000     -69.59430000
C      -45.85570000     -34.90520000     -70.73260000
H      -45.41620000     -33.93290000     -70.47880000
H      -45.13020000     -35.47640000     -71.34930000
C      -45.20160000     -32.25730000     -73.05480000
H      -44.71590000     -33.15370000     -72.63370000
H      -45.04880000     -32.25550000     -74.15590000
C      -46.74600000     -32.45370000     -72.97590000
C      -47.59400000     -31.59590000     -73.62520000
C      -47.52580000     -33.39410000     -72.18110000
H      -47.19730000     -30.86050000     -74.27850000
C      -48.90620000     -33.33250000     -72.48890000
C      -47.21070000     -34.64160000     -71.40070000
C      -48.33920000     -35.36970000     -71.33270000
S      -49.30000000     -31.92600000     -73.39270000
S      -49.87600000     -34.71520000     -71.93910000
H      -48.33350000     -36.29550000     -70.75890000
