40
Properties=species:S:1:pos:R:3 #=T CELL(abcABC):=T 1.889726e+02=T 90.00000=T Traj:=T positionsangstrom=T Step:=T 0=T Bead:=T pbc="F F F"
C      -43.33800000     -35.44140000     -73.93820000
C      -44.65720000     -35.75890000     -73.54160000
C      -44.94630000     -36.28080000     -72.28380000
C      -43.94800000     -36.55010000     -71.29360000
C      -42.59560000     -36.17370000     -71.63810000
C      -42.34360000     -35.57360000     -72.90060000
H      -43.20330000     -35.11800000     -74.92200000
H      -46.04040000     -36.49290000     -72.09130000
H      -41.89210000     -36.28920000     -70.88430000
H      -41.26500000     -35.35620000     -73.08160000
C      -44.29940000     -37.22350000     -70.03690000
H      -43.33960000     -37.39000000     -69.50870000
H      -44.71540000     -38.21920000     -70.37550000
C      -45.72280000     -35.56720000     -74.68530000
H      -45.19530000     -35.26730000     -75.55350000
H      -46.13900000     -36.54170000     -74.97010000
S      -45.62150000     -36.25710000     -69.06490000
S      -47.27850000     -34.68340000     -74.24090000
C      -45.15670000     -34.48750000     -69.35460000
H      -44.29980000     -34.20210000     -68.69980000
H      -44.96340000     -34.49520000     -70.40680000
C      -46.86600000     -32.95970000     -73.69800000
H      -47.81500000     -32.53480000     -73.62090000
H      -46.44910000     -32.33620000     -74.44900000
C      -46.25160000     -33.01640000     -72.35040000
H      -46.84780000     -33.50220000     -71.71090000
H      -45.29130000     -33.62620000     -72.30230000
C      -46.37450000     -33.55430000     -69.03470000
H      -46.62970000     -33.66430000     -68.00660000
H      -47.25470000     -33.75360000     -69.69340000
C      -45.91670000     -32.04190000     -69.16370000
C      -45.50130000     -31.31880000     -68.05620000
C      -45.78340000     -31.30570000     -70.45550000
H      -45.49880000     -31.54540000     -66.98500000
C      -45.34830000     -30.00180000     -70.22410000
C      -45.94020000     -31.61950000     -71.82540000
C      -45.60920000     -30.53810000     -72.66500000
S      -45.10150000     -29.67150000     -68.54130000
S      -45.16330000     -29.08530000     -71.70080000
H      -45.84010000     -30.56570000     -73.69330000
