40
Properties=species:S:1:pos:R:3 #=T CELL(abcABC):=T 1.889726e+02=T 90.00000=T Traj:=T positionsangstrom=T Step:=T 0=T Bead:=T pbc="F F F"
C      -43.34370000     -35.30040000     -73.25130000
C      -44.59070000     -35.91360000     -73.13520000
C      -44.99450000     -36.53450000     -71.90940000
C      -44.11020000     -36.47580000     -70.78730000
C      -42.91720000     -35.67850000     -70.93490000
C      -42.53150000     -35.14100000     -72.14570000
H      -43.13600000     -34.79900000     -74.19660000
H      -45.91370000     -37.12450000     -72.00250000
H      -42.19140000     -35.63880000     -70.09050000
H      -41.56930000     -34.75770000     -72.25130000
C      -44.40970000     -36.89270000     -69.30430000
H      -43.55010000     -36.66470000     -68.67240000
H      -44.63010000     -37.93090000     -69.07450000
C      -45.45430000     -35.88730000     -74.38180000
H      -45.03840000     -35.32160000     -75.21410000
H      -45.55810000     -36.89350000     -74.82090000
S      -45.93480000     -35.95100000     -68.75800000
S      -47.12090000     -35.13590000     -74.28980000
C      -45.36150000     -34.24820000     -69.19580000
H      -44.53990000     -33.86530000     -68.56680000
H      -45.04960000     -34.25990000     -70.24550000
C      -46.73040000     -33.37290000     -73.93070000
H      -47.62980000     -32.75560000     -74.23890000
H      -45.86670000     -33.10650000     -74.45330000
C      -46.60980000     -33.15640000     -72.44310000
H      -47.62660000     -33.25280000     -71.95710000
H      -46.02400000     -33.98310000     -72.00380000
C      -46.52740000     -33.23680000     -68.98900000
H      -46.79540000     -33.13870000     -67.89550000
H      -47.39700000     -33.55450000     -69.43660000
C      -45.97280000     -31.87950000     -69.43120000
C      -45.58330000     -30.95470000     -68.44840000
C      -45.71670000     -31.41750000     -70.79350000
H      -45.56350000     -31.03360000     -67.42680000
C      -45.18010000     -30.16460000     -70.75940000
C      -45.96900000     -31.82880000     -72.16310000
C      -45.53410000     -30.86670000     -73.01270000
S      -44.87330000     -29.44680000     -69.15970000
S      -44.84950000     -29.39910000     -72.27350000
H      -45.71210000     -30.84370000     -74.08960000
