40
Properties=species:S:1:pos:R:3 #=T CELL(abcABC):=T 1.889726e+02=T 90.00000=T Traj:=T positionsangstrom=T Step:=T 0=T Bead:=T pbc="F F F"
C      -46.47180000     -32.92560000     -68.79540000
C      -47.49480000     -32.64250000     -69.68270000
C      -47.78530000     -33.59750000     -70.68310000
C      -47.16500000     -34.82290000     -70.73920000
C      -46.17540000     -35.17430000     -69.80020000
C      -45.83980000     -34.19320000     -68.87140000
H      -46.17360000     -32.15920000     -68.03550000
H      -48.63440000     -33.34600000     -71.29770000
H      -45.71580000     -36.13420000     -69.97370000
H      -45.03360000     -34.41980000     -68.14900000
C      -47.67380000     -35.81500000     -71.74950000
H      -48.62770000     -35.37370000     -72.17450000
H      -47.96880000     -36.68470000     -71.28290000
C      -48.19560000     -31.33900000     -69.46320000
H      -49.26110000     -31.29020000     -69.40690000
H      -47.68480000     -31.00950000     -68.52150000
S      -46.54250000     -36.08050000     -73.14770000
S      -47.90330000     -30.15110000     -70.84550000
C      -46.52120000     -34.43650000     -73.99270000
H      -46.94560000     -34.58170000     -74.97270000
H      -47.16910000     -33.82220000     -73.35780000
C      -46.04380000     -30.13510000     -71.05860000
H      -45.54710000     -30.06320000     -70.02760000
H      -45.94950000     -29.17580000     -71.49290000
C      -45.41250000     -31.27310000     -71.88600000
H      -46.25440000     -31.98510000     -72.02370000
H      -45.32850000     -30.93020000     -72.84190000
C      -45.13470000     -33.88590000     -74.12670000
H      -45.15940000     -32.80800000     -74.36250000
H      -44.82440000     -34.23280000     -75.17230000
C      -44.09470000     -34.13460000     -73.07040000
C      -43.23170000     -35.17380000     -73.07640000
C      -43.75940000     -33.25940000     -71.86550000
H      -43.11660000     -36.03630000     -73.80570000
C      -42.58740000     -33.62150000     -71.23370000
C      -44.25370000     -32.01620000     -71.31520000
C      -43.48170000     -31.56030000     -70.24670000
S      -41.97450000     -35.15610000     -71.85880000
S      -42.08970000     -32.65770000     -69.89270000
H      -43.58660000     -30.60650000     -69.57760000
