40
Properties=species:S:1:pos:R:3 #=T CELL(abcABC):=T 1.889726e+02=T 90.00000=T Traj:=T positionsangstrom=T Step:=T 0=T Bead:=T pbc="F F F"
C      -42.93780000     -36.36680000     -73.05610000
C      -44.32730000     -36.40570000     -72.87410000
C      -44.82450000     -36.54680000     -71.56730000
C      -44.03150000     -36.53950000     -70.44340000
C      -42.62100000     -36.43830000     -70.64800000
C      -42.06910000     -36.35360000     -71.92370000
H      -42.52430000     -36.28160000     -74.08120000
H      -45.92590000     -36.51370000     -71.46890000
H      -41.83600000     -36.60780000     -69.88860000
H      -41.05950000     -36.28780000     -72.14050000
C      -44.49500000     -36.69880000     -68.98800000
H      -43.70890000     -36.38890000     -68.33440000
H      -44.98150000     -37.65600000     -68.64020000
C      -45.15090000     -36.41780000     -74.18450000
H      -44.45250000     -36.19170000     -74.98780000
H      -45.64920000     -37.39950000     -74.44270000
S      -45.84720000     -35.48550000     -68.65470000
S      -46.66900000     -35.31260000     -74.15450000
C      -45.32800000     -33.70130000     -68.96010000
H      -44.71980000     -33.34640000     -68.12950000
H      -44.71570000     -33.64500000     -69.89490000
C      -46.21000000     -33.56420000     -73.89320000
H      -47.02160000     -32.88640000     -74.18090000
H      -45.50510000     -33.34170000     -74.66670000
C      -45.75840000     -33.30100000     -72.47520000
H      -46.52590000     -33.67240000     -71.80070000
H      -44.79730000     -33.81900000     -72.27490000
C      -46.69100000     -32.96350000     -69.07300000
H      -47.19200000     -32.89940000     -68.11440000
H      -47.31330000     -33.51090000     -69.70340000
C      -46.39130000     -31.56930000     -69.62160000
C      -46.61690000     -30.48260000     -68.79770000
C      -45.93940000     -31.13180000     -70.98940000
H      -46.91410000     -30.34960000     -67.75970000
C      -45.76990000     -29.76400000     -71.09030000
C      -45.59250000     -31.81940000     -72.24500000
C      -44.99390000     -30.95880000     -73.13410000
S      -46.11500000     -28.96420000     -69.59350000
S      -44.95680000     -29.29560000     -72.53630000
H      -44.50520000     -31.25200000     -74.09330000
