40
Properties=species:S:1:pos:R:3 #=T CELL(abcABC):=T 1.889726e+02=T 90.00000=T Traj:=T positionsangstrom=T Step:=T 0=T Bead:=T pbc="F F F"
C      -46.32510000     -32.99570000     -68.76960000
C      -47.32960000     -32.63110000     -69.66700000
C      -47.70310000     -33.64300000     -70.55360000
C      -47.11580000     -34.92070000     -70.67940000
C      -46.03830000     -35.24450000     -69.79520000
C      -45.61830000     -34.22040000     -68.85570000
H      -46.16690000     -32.25580000     -67.97980000
H      -48.48670000     -33.41210000     -71.30010000
H      -45.56520000     -36.25120000     -69.91660000
H      -44.90110000     -34.39080000     -68.07850000
C      -47.50430000     -35.98570000     -71.67150000
H      -48.59990000     -35.82000000     -71.85470000
H      -47.35370000     -37.00190000     -71.26720000
C      -48.07620000     -31.28860000     -69.55070000
H      -49.18610000     -31.38750000     -69.73300000
H      -48.00090000     -31.01180000     -68.54190000
S      -46.55680000     -35.99550000     -73.28120000
S      -47.71560000     -29.97920000     -70.89610000
C      -46.53920000     -34.17910000     -73.61590000
H      -47.27420000     -33.96780000     -74.43470000
H      -46.82900000     -33.67450000     -72.70640000
C      -45.86490000     -30.09520000     -70.84050000
H      -45.54090000     -30.35500000     -69.85050000
H      -45.40110000     -29.14790000     -71.18900000
C      -45.42200000     -31.12830000     -71.90620000
H      -46.20190000     -31.94610000     -72.02920000
H      -45.13920000     -30.61010000     -72.87740000
C      -45.18980000     -33.66210000     -74.14350000
H      -45.29740000     -32.60380000     -74.26350000
H      -45.07540000     -34.11110000     -75.07860000
C      -44.08080000     -34.00480000     -73.19710000
C      -43.42210000     -35.19590000     -73.21490000
C      -43.79090000     -33.26590000     -71.97480000
H      -43.31920000     -35.91410000     -74.02180000
C      -42.75630000     -33.76110000     -71.22500000
C      -44.20800000     -31.92530000     -71.42480000
C      -43.51720000     -31.57540000     -70.27790000
S      -42.28840000     -35.34260000     -71.88930000
S      -42.28920000     -32.83930000     -69.84260000
H      -43.60520000     -30.64220000     -69.61260000
