40
Properties=species:S:1:pos:R:3 #=T CELL(abcABC):=T 1.889726e+02=T 90.00000=T Traj:=T positionsangstrom=T Step:=T 0=T Bead:=T pbc="F F F"
C      -42.89210000     -36.27580000     -72.94600000
C      -44.26770000     -36.36090000     -72.74840000
C      -44.75460000     -36.41490000     -71.37720000
C      -43.86880000     -36.35810000     -70.26530000
C      -42.45450000     -36.15700000     -70.56010000
C      -42.00850000     -36.18260000     -71.83730000
H      -42.59720000     -36.14430000     -73.97820000
H      -45.90160000     -36.36450000     -71.23110000
H      -41.76050000     -36.19270000     -69.73880000
H      -40.88570000     -36.13670000     -72.01790000
C      -44.31100000     -36.28630000     -68.79130000
H      -43.55650000     -35.77100000     -68.19080000
H      -44.32230000     -37.31290000     -68.37390000
C      -45.16320000     -36.41340000     -74.03710000
H      -44.59620000     -35.99450000     -74.88230000
H      -45.28800000     -37.49130000     -74.16830000
S      -45.98520000     -35.61860000     -68.59440000
S      -46.66110000     -35.43240000     -73.89440000
C      -45.65510000     -33.91050000     -69.12770000
H      -45.04950000     -33.35760000     -68.40980000
H      -44.98830000     -33.79740000     -70.03410000
C      -46.08100000     -33.67910000     -73.96870000
H      -46.98320000     -33.13230000     -74.21880000
H      -45.44300000     -33.59030000     -74.81960000
C      -45.43900000     -33.26530000     -72.65000000
H      -45.98300000     -33.74310000     -71.86970000
H      -44.37860000     -33.57580000     -72.63340000
C      -46.89040000     -33.13930000     -69.38680000
H      -47.47850000     -32.98120000     -68.54860000
H      -47.56610000     -33.57260000     -70.08240000
C      -46.46270000     -31.69860000     -69.82890000
C      -46.85770000     -30.63710000     -69.04970000
C      -45.92010000     -31.21060000     -71.10410000
H      -47.33810000     -30.68370000     -68.10720000
C      -45.64110000     -29.84410000     -71.12310000
C      -45.38980000     -31.79050000     -72.37690000
C      -44.93170000     -30.81810000     -73.26060000
S      -46.19260000     -29.08870000     -69.66110000
S      -45.05540000     -29.17240000     -72.58090000
H      -44.53690000     -31.04550000     -74.26930000
