40
Properties=species:S:1:pos:R:3 #=T CELL(abcABC):=T 1.889726e+02=T 90.00000=T Traj:=T positionsangstrom=T Step:=T 0=T Bead:=T pbc="F F F"
C      -42.97140000     -36.27240000     -73.26300000
C      -44.36910000     -36.45930000     -73.08190000
C      -44.83170000     -36.44280000     -71.76340000
C      -44.04750000     -36.39000000     -70.62870000
C      -42.64400000     -36.28060000     -70.84430000
C      -42.13730000     -36.27600000     -72.13220000
H      -42.56910000     -36.30640000     -74.28160000
H      -45.90470000     -36.47470000     -71.54140000
H      -42.03160000     -36.12070000     -69.98050000
H      -41.00190000     -36.31050000     -72.27880000
C      -44.66310000     -36.60440000     -69.29730000
H      -44.04130000     -36.66070000     -68.40380000
H      -45.05740000     -37.66010000     -69.45050000
C      -45.37100000     -36.57280000     -74.14420000
H      -44.91660000     -36.56680000     -75.17570000
H      -45.94350000     -37.45390000     -74.20050000
S      -46.09960000     -35.60670000     -68.83610000
S      -46.72390000     -35.30950000     -73.97370000
C      -45.42400000     -33.79970000     -68.82410000
H      -44.93570000     -33.56210000     -67.88740000
H      -44.81260000     -33.66460000     -69.67350000
C      -45.77070000     -33.67960000     -73.73570000
H      -46.23300000     -33.04740000     -74.44780000
H      -44.71040000     -33.81490000     -74.03270000
C      -45.88060000     -33.30480000     -72.27370000
H      -46.91770000     -33.49640000     -71.94120000
H      -45.31580000     -34.01590000     -71.65930000
C      -46.64480000     -32.87490000     -69.00270000
H      -47.03500000     -32.69530000     -68.05140000
H      -47.41120000     -33.27950000     -69.63290000
C      -46.21020000     -31.49760000     -69.51510000
C      -46.18620000     -30.41180000     -68.65640000
C      -45.80830000     -31.14000000     -70.84820000
H      -46.40720000     -30.34120000     -67.59960000
C      -45.59400000     -29.74850000     -70.98130000
C      -45.61400000     -31.84470000     -72.07810000
C      -45.12460000     -31.00210000     -73.05420000
S      -45.81330000     -28.93180000     -69.50490000
S      -45.09530000     -29.34860000     -72.57270000
H      -44.95130000     -31.18460000     -74.10290000
