40
Properties=species:S:1:pos:R:3 #=T CELL(abcABC):=T 1.889726e+02=T 90.00000=T Traj:=T positionsangstrom=T Step:=T 0=T Bead:=T pbc="F F F"
C      -45.47180000     -28.74140000     -70.56230000
C      -44.75850000     -29.81950000     -70.07080000
C      -45.35760000     -31.01580000     -69.72650000
C      -46.75030000     -31.18950000     -69.94550000
C      -47.51140000     -30.07280000     -70.33140000
C      -46.83820000     -28.91240000     -70.64280000
H      -45.04750000     -27.91700000     -70.92080000
H      -44.74970000     -31.90370000     -69.57720000
H      -48.62580000     -30.02870000     -70.47480000
H      -47.47540000     -28.16630000     -71.16160000
C      -47.29130000     -32.61500000     -69.71820000
H      -48.08630000     -32.59850000     -68.93090000
H      -46.40660000     -33.28150000     -69.36440000
C      -43.22800000     -29.84200000     -70.05140000
H      -42.76180000     -28.85810000     -70.25640000
H      -42.80560000     -30.24160000     -69.12250000
S      -48.22230000     -33.33270000     -71.12890000
S      -42.55030000     -30.73670000     -71.55050000
C      -47.20960000     -32.66780000     -72.53850000
H      -47.90170000     -31.91680000     -73.10340000
H      -46.32900000     -32.03300000     -72.15350000
C      -42.62250000     -32.49130000     -71.08280000
H      -43.04330000     -32.60600000     -70.05210000
H      -41.55970000     -32.88780000     -71.00610000
C      -43.48550000     -33.29260000     -71.97370000
H      -44.51430000     -32.83480000     -71.92800000
H      -43.06070000     -33.14550000     -73.02560000
C      -46.62770000     -33.80980000     -73.41060000
H      -45.83410000     -33.25000000     -73.97680000
H      -47.45300000     -34.05240000     -74.14730000
C      -46.20520000     -35.10800000     -72.84210000
C      -47.02040000     -36.20450000     -72.94790000
C      -44.96130000     -35.44860000     -72.08010000
H      -48.04850000     -36.16270000     -73.31550000
C      -44.98220000     -36.79380000     -71.70170000
C      -43.68220000     -34.76820000     -71.63120000
C      -42.86220000     -35.63030000     -70.95380000
S      -46.44930000     -37.62140000     -72.18000000
S      -43.50230000     -37.24050000     -70.78910000
H      -41.93610000     -35.36320000     -70.41040000
