40
Properties=species:S:1:pos:R:3 #=T CELL(abcABC):=T 1.889726e+02=T 90.00000=T Traj:=T positionsangstrom=T Step:=T 0=T Bead:=T pbc="F F F"
C      -46.69760000     -32.97280000     -68.82490000
C      -47.72050000     -33.57120000     -69.64020000
C      -47.46340000     -34.82920000     -70.18850000
C      -46.14200000     -35.38730000     -70.04980000
C      -45.13670000     -34.75160000     -69.26090000
C      -45.46980000     -33.58410000     -68.59100000
H      -46.88730000     -32.00720000     -68.35470000
H      -48.19830000     -35.33590000     -70.74940000
H      -44.16780000     -35.16880000     -69.31640000
H      -44.70030000     -33.01400000     -68.07190000
C      -45.80340000     -36.70650000     -70.71390000
H      -46.64960000     -37.23610000     -71.11090000
H      -45.43150000     -37.47100000     -69.99520000
C      -48.92840000     -32.75050000     -69.95440000
H      -49.75370000     -33.35130000     -69.68940000
H      -48.98720000     -31.87570000     -69.35680000
S      -44.58420000     -36.51920000     -72.06260000
S      -49.09320000     -32.27020000     -71.77890000
C      -45.46490000     -35.46260000     -73.31790000
H      -46.01060000     -35.99750000     -74.10230000
H      -46.26040000     -35.00660000     -72.72520000
C      -47.60740000     -31.29440000     -72.06260000
H      -47.21210000     -31.03760000     -71.10120000
H      -47.99110000     -30.40880000     -72.56780000
C      -46.48290000     -31.99060000     -72.84520000
H      -46.71550000     -33.04690000     -72.57700000
H      -46.45510000     -31.89070000     -73.90890000
C      -44.47840000     -34.51260000     -73.97810000
H      -44.91610000     -33.78270000     -74.65110000
H      -43.73490000     -35.09760000     -74.55610000
C      -43.62590000     -33.73320000     -72.97400000
C      -42.38500000     -34.14930000     -72.59760000
C      -44.07680000     -32.58540000     -72.24160000
H      -41.79010000     -34.98690000     -72.99190000
C      -43.08340000     -32.19740000     -71.28180000
C      -45.13320000     -31.62110000     -72.22450000
C      -44.91190000     -30.60120000     -71.36050000
S      -41.71450000     -33.15350000     -71.34520000
S      -43.43010000     -30.72030000     -70.36840000
H      -45.66440000     -29.80400000     -71.31190000
