40
Properties=species:S:1:pos:R:3 #=T CELL(abcABC):=T 1.889726e+02=T 90.00000=T Traj:=T positionsangstrom=T Step:=T 0=T Bead:=T pbc="F F F"
C      -46.91270000     -33.13230000     -68.70190000
C      -47.69870000     -33.63040000     -69.72500000
C      -47.25870000     -34.75070000     -70.44100000
C      -46.09260000     -35.37840000     -70.15360000
C      -45.22690000     -34.88580000     -69.10100000
C      -45.68830000     -33.80000000     -68.42360000
H      -47.25360000     -32.22910000     -68.10630000
H      -47.84590000     -35.17030000     -71.24270000
H      -44.30210000     -35.42180000     -68.89110000
H      -45.06090000     -33.27910000     -67.64650000
C      -45.73830000     -36.68900000     -70.81720000
H      -46.64040000     -36.89620000     -71.41490000
H      -45.61980000     -37.43030000     -70.04070000
C      -49.03220000     -33.01880000     -70.09490000
H      -49.92670000     -33.67480000     -69.95730000
H      -49.28250000     -32.02590000     -69.56720000
S      -44.35810000     -36.62110000     -72.00500000
S      -49.16080000     -32.66590000     -71.87920000
C      -45.17850000     -35.59500000     -73.32960000
H      -45.54970000     -36.23210000     -74.20890000
H      -46.08370000     -35.27020000     -72.84180000
C      -47.93090000     -31.28770000     -72.13640000
H      -47.72180000     -30.76900000     -71.12320000
H      -48.45800000     -30.57050000     -72.83050000
C      -46.63920000     -31.73770000     -72.82720000
H      -46.69220000     -32.74630000     -73.17860000
H      -46.53170000     -31.04470000     -73.73840000
C      -44.42080000     -34.33120000     -73.87640000
H      -45.17740000     -33.75540000     -74.31960000
H      -43.76110000     -34.75400000     -74.66830000
C      -43.62240000     -33.68460000     -72.80830000
C      -42.35760000     -34.13570000     -72.40770000
C      -44.04580000     -32.47740000     -72.15440000
H      -41.87840000     -35.07920000     -72.71410000
C      -43.00600000     -31.95490000     -71.34600000
C      -45.22780000     -31.54570000     -72.08260000
C      -45.05950000     -30.46710000     -71.26000000
S      -41.68800000     -33.12410000     -71.14000000
S      -43.35690000     -30.34370000     -70.67640000
H      -45.69450000     -29.62470000     -71.02950000
