40
Properties=species:S:1:pos:R:3 #=T CELL(abcABC):=T 1.889726e+02=T 90.00000=T Traj:=T positionsangstrom=T Step:=T 0=T Bead:=T pbc="F F F"
C      -46.65020000     -32.95540000     -68.89570000
C      -47.81610000     -33.16570000     -69.64320000
C      -47.91470000     -34.45050000     -70.27170000
C      -46.86550000     -35.42950000     -70.20500000
C      -45.73060000     -35.15560000     -69.43910000
C      -45.65430000     -33.91320000     -68.79100000
H      -46.43660000     -32.07610000     -68.28070000
H      -48.88570000     -34.66110000     -70.77120000
H      -44.77110000     -35.76330000     -69.44050000
H      -44.70110000     -33.60100000     -68.27940000
C      -47.08730000     -36.72410000     -71.00450000
H      -48.13250000     -36.79350000     -71.34540000
H      -46.78730000     -37.65470000     -70.48390000
C      -48.88190000     -32.10050000     -69.77350000
H      -49.88320000     -32.62750000     -69.87090000
H      -48.76860000     -31.43700000     -68.90790000
S      -45.74530000     -36.61500000     -72.35660000
S      -48.56450000     -31.06230000     -71.26960000
C      -46.15970000     -35.01650000     -73.29980000
H      -46.94870000     -35.31990000     -74.04640000
H      -46.48770000     -34.27450000     -72.55510000
C      -46.77850000     -30.57280000     -71.21310000
H      -46.51280000     -31.01630000     -70.22420000
H      -46.87850000     -29.48070000     -71.29370000
C      -45.88760000     -31.10640000     -72.44610000
H      -46.43120000     -31.99840000     -72.84690000
H      -45.90330000     -30.29730000     -73.18520000
C      -44.97570000     -34.41670000     -73.96180000
H      -45.36640000     -33.51090000     -74.43810000
H      -44.51620000     -35.07700000     -74.67910000
C      -43.90190000     -34.04520000     -72.98220000
C      -42.83760000     -34.86130000     -72.72680000
C      -43.90790000     -32.83470000     -72.12530000
H      -42.59270000     -35.80700000     -73.24160000
C      -42.67240000     -32.79430000     -71.49520000
C      -44.55090000     -31.53400000     -71.91840000
C      -43.80610000     -30.63900000     -71.13760000
S      -41.67960000     -34.22540000     -71.62620000
S      -42.19940000     -31.30340000     -70.66540000
H      -44.17730000     -29.59440000     -70.97000000
