40
Properties=species:S:1:pos:R:3 #=T CELL(abcABC):=T 1.889726e+02=T 90.00000=T Traj:=T positionsangstrom=T Step:=T 0=T Bead:=T pbc="F F F"
C      -46.53440000     -32.82430000     -68.99890000
C      -47.59920000     -33.28630000     -69.73420000
C      -47.44280000     -34.61080000     -70.42640000
C      -46.23080000     -35.29810000     -70.17400000
C      -45.11600000     -34.76040000     -69.48630000
C      -45.30840000     -33.55190000     -68.89270000
H      -46.58540000     -31.89300000     -68.50540000
H      -48.32480000     -35.02100000     -70.94790000
H      -44.20360000     -35.38060000     -69.54540000
H      -44.46020000     -33.18820000     -68.39900000
C      -46.07730000     -36.70730000     -70.67840000
H      -47.05940000     -37.21400000     -70.91360000
H      -45.54400000     -37.28540000     -69.91700000
C      -48.83320000     -32.34040000     -69.96700000
H      -49.82480000     -32.77770000     -69.73350000
H      -48.81800000     -31.39980000     -69.40770000
S      -44.99790000     -36.76040000     -72.20140000
S      -49.07190000     -31.90630000     -71.74560000
C      -45.72380000     -35.34890000     -73.16810000
H      -46.46540000     -35.73340000     -73.84840000
H      -46.30190000     -34.73080000     -72.49380000
C      -47.60890000     -30.85140000     -72.20580000
H      -47.35810000     -30.17770000     -71.34400000
H      -47.74880000     -30.23930000     -73.14340000
C      -46.41290000     -31.82970000     -72.59180000
H      -46.79620000     -32.81140000     -72.61250000
H      -46.18580000     -31.51840000     -73.64490000
C      -44.71960000     -34.48260000     -73.86630000
H      -45.30360000     -33.70150000     -74.49530000
H      -44.05650000     -34.96980000     -74.51830000
C      -43.80480000     -33.80320000     -72.90160000
C      -42.49660000     -34.19640000     -72.84420000
C      -44.00960000     -32.69000000     -71.99580000
H      -42.15540000     -34.90760000     -73.50690000
C      -42.88340000     -32.38340000     -71.30860000
C      -45.15710000     -31.82480000     -71.65320000
C      -44.81660000     -30.91540000     -70.69230000
S      -41.52600000     -33.39140000     -71.66590000
S      -43.13070000     -31.08510000     -70.13520000
H      -45.41860000     -30.16590000     -70.23490000
