40
Properties=species:S:1:pos:R:3 #=T CELL(abcABC):=T 1.889726e+02=T 90.00000=T Traj:=T positionsangstrom=T Step:=T 0=T Bead:=T pbc="F F F"
C      -46.03850000     -29.31510000     -72.04790000
C      -45.22030000     -30.49100000     -71.85260000
C      -45.75460000     -31.59090000     -71.14750000
C      -47.15260000     -31.63850000     -70.74660000
C      -47.90580000     -30.52450000     -71.10220000
C      -47.36340000     -29.35390000     -71.66750000
H      -45.75980000     -28.35250000     -72.54940000
H      -45.06390000     -32.46650000     -70.88870000
H      -48.92030000     -30.49610000     -70.78350000
H      -47.99680000     -28.48040000     -71.73760000
C      -47.70950000     -32.74070000     -70.02910000
H      -48.52960000     -32.41060000     -69.30430000
H      -47.06760000     -33.40170000     -69.50070000
C      -43.82580000     -30.40750000     -72.32890000
H      -43.42940000     -29.44030000     -72.47370000
H      -43.12330000     -30.99980000     -71.74670000
S      -48.47770000     -33.93650000     -71.19090000
S      -43.66790000     -31.28170000     -74.04510000
C      -47.27130000     -33.99870000     -72.62250000
H      -47.70800000     -33.92910000     -73.62980000
H      -46.56960000     -33.16020000     -72.66730000
C      -42.62060000     -32.73490000     -73.56630000
H      -41.97880000     -32.39870000     -72.74380000
H      -41.94470000     -32.94820000     -74.43010000
C      -43.48270000     -33.87100000     -73.03310000
H      -44.51100000     -33.70810000     -73.33500000
H      -43.15810000     -34.72780000     -73.60200000
C      -46.58540000     -35.37620000     -72.65510000
H      -45.91230000     -35.36600000     -73.48550000
H      -47.35330000     -36.17030000     -72.67720000
C      -45.80680000     -35.71730000     -71.39970000
C      -46.40990000     -36.45450000     -70.42590000
C      -44.54070000     -35.10150000     -70.98950000
H      -47.49470000     -36.81000000     -70.51420000
C      -44.27740000     -35.43690000     -69.62110000
C      -43.44000000     -34.33610000     -71.57880000
C      -42.41760000     -34.19090000     -70.69840000
S      -45.43580000     -36.54230000     -68.91420000
S      -42.71030000     -34.98770000     -69.07350000
H      -41.47590000     -33.55610000     -70.82970000
