40
Properties=species:S:1:pos:R:3 #=T CELL(abcABC):=T 1.889726e+02=T 90.00000=T Traj:=T positionsangstrom=T Step:=T 0=T Bead:=T pbc="F F F"
C      -41.57360000     -35.11820000     -72.31590000
C      -42.66770000     -35.96830000     -72.33150000
C      -43.57570000     -36.06430000     -71.21390000
C      -43.10550000     -35.57610000     -70.01910000
C      -41.89200000     -34.85210000     -69.92020000
C      -41.15960000     -34.57500000     -71.10540000
H      -41.15150000     -34.91730000     -73.26390000
H      -44.47760000     -36.64320000     -71.40740000
H      -41.62430000     -34.45000000     -68.94400000
H      -40.20710000     -34.09190000     -70.99610000
C      -44.11280000     -35.69980000     -68.81810000
H      -43.79660000     -36.46610000     -68.11980000
H      -45.05850000     -36.08120000     -69.20920000
C      -43.13840000     -36.48840000     -73.62380000
H      -42.46950000     -36.11990000     -74.42470000
H      -43.16600000     -37.56650000     -73.54010000
S      -44.30150000     -34.08280000     -67.84100000
S      -44.86570000     -35.99020000     -74.22430000
C      -45.14100000     -32.93960000     -68.97180000
H      -45.24000000     -32.07060000     -68.30970000
H      -44.52660000     -32.79630000     -69.85100000
C      -45.12940000     -34.07240000     -73.93210000
H      -45.98810000     -33.92020000     -74.54790000
H      -44.20410000     -33.60570000     -74.21750000
C      -45.62000000     -33.62230000     -72.51390000
H      -46.20620000     -34.37770000     -71.95800000
H      -44.83810000     -33.54030000     -71.77780000
C      -46.47100000     -33.48710000     -69.43990000
H      -47.09640000     -33.95960000     -68.68110000
H      -46.18780000     -34.20260000     -70.17250000
C      -47.26900000     -32.34470000     -70.01510000
C      -47.96790000     -31.46650000     -69.26320000
C      -47.10880000     -31.86480000     -71.38230000
H      -48.10280000     -31.37390000     -68.17780000
C      -47.74170000     -30.68700000     -71.58330000
C      -46.40380000     -32.34230000     -72.54870000
C      -46.47430000     -31.44520000     -73.62580000
S      -48.55440000     -30.05020000     -70.22400000
S      -47.35300000     -29.97790000     -73.22990000
H      -45.80030000     -31.38440000     -74.52220000
