40
Properties=species:S:1:pos:R:3 #=T CELL(abcABC):=T 1.889726e+02=T 90.00000=T Traj:=T positionsangstrom=T Step:=T 0=T Bead:=T pbc="F F F"
C      -41.87540000     -32.95540000     -68.74350000
C      -42.59640000     -34.07040000     -69.19070000
C      -43.88050000     -34.26210000     -68.70880000
C      -44.47090000     -33.23060000     -67.94390000
C      -43.77750000     -32.07880000     -67.57150000
C      -42.44430000     -31.90000000     -67.96720000
H      -40.93900000     -32.72960000     -69.20600000
H      -44.57880000     -34.91600000     -69.17390000
H      -44.32360000     -31.36920000     -66.96870000
H      -41.92860000     -31.04560000     -67.72840000
C      -45.86140000     -33.55670000     -67.35560000
H      -45.88210000     -33.37720000     -66.23020000
H      -46.16880000     -34.60650000     -67.52390000
C      -42.00110000     -35.10690000     -70.08220000
H      -41.05660000     -35.55600000     -69.68470000
H      -42.60900000     -35.95840000     -70.15360000
S      -47.17000000     -32.41240000     -67.92750000
S      -41.56960000     -34.50390000     -71.84540000
C      -47.60800000     -33.03020000     -69.57890000
H      -47.48920000     -34.15310000     -69.64360000
H      -48.65820000     -32.96730000     -69.75620000
C      -43.14400000     -33.67160000     -72.27060000
H      -42.88000000     -33.40880000     -73.30790000
H      -43.33080000     -32.76600000     -71.69920000
C      -44.40860000     -34.58380000     -72.15590000
H      -44.20420000     -35.69380000     -72.12720000
H      -44.88220000     -34.38990000     -71.18140000
C      -46.73670000     -32.32150000     -70.76910000
H      -45.69100000     -32.66140000     -70.62000000
H      -46.72520000     -31.27090000     -70.45180000
C      -47.19150000     -32.52240000     -72.22090000
C      -48.38460000     -31.93060000     -72.67810000
C      -46.57060000     -33.33510000     -73.22380000
H      -49.09760000     -31.36420000     -71.95430000
C      -47.25550000     -33.22810000     -74.42870000
C      -45.43900000     -34.27640000     -73.28090000
C      -45.33560000     -34.77190000     -74.54460000
S      -48.65950000     -32.20100000     -74.41630000
S      -46.61070000     -34.33330000     -75.66420000
H      -44.62070000     -35.49620000     -74.90220000
