40
Properties=species:S:1:pos:R:3 #=T CELL(abcABC):=T 1.889726e+02=T 90.00000=T Traj:=T positionsangstrom=T Step:=T 0=T Bead:=T pbc="F F F"
C      -41.83190000     -32.91860000     -68.82270000
C      -42.52530000     -34.06410000     -69.19560000
C      -43.87960000     -34.14240000     -68.86130000
C      -44.47330000     -33.14590000     -67.98370000
C      -43.66200000     -32.16890000     -67.42030000
C      -42.35490000     -31.96760000     -67.92570000
H      -40.81950000     -32.93590000     -68.99800000
H      -44.34020000     -35.15070000     -68.84340000
H      -44.12900000     -31.59650000     -66.62390000
H      -41.73920000     -31.19420000     -67.60990000
C      -45.89370000     -33.39980000     -67.63030000
H      -46.02420000     -33.60280000     -66.58320000
H      -46.04290000     -34.34230000     -68.15910000
C      -41.85960000     -35.09840000     -70.07690000
H      -40.86590000     -35.16580000     -69.74390000
H      -42.44970000     -36.03600000     -70.07680000
S      -47.25970000     -32.18230000     -68.04780000
S      -41.62690000     -34.56210000     -71.87490000
C      -47.89400000     -32.62410000     -69.73030000
H      -48.33270000     -33.64090000     -69.73600000
H      -48.59210000     -31.83710000     -69.86110000
C      -43.21770000     -33.63550000     -72.24010000
H      -43.14560000     -33.31530000     -73.30600000
H      -43.32520000     -32.70610000     -71.55550000
C      -44.39170000     -34.66040000     -72.11420000
H      -43.99690000     -35.65310000     -72.32500000
H      -44.67550000     -34.71220000     -71.05920000
C      -46.72160000     -32.42080000     -70.74200000
H      -46.08610000     -33.25330000     -70.56990000
H      -46.16140000     -31.51880000     -70.61030000
C      -47.19830000     -32.53530000     -72.17800000
C      -48.31150000     -31.87620000     -72.73120000
C      -46.51410000     -33.39260000     -73.15280000
H      -48.90180000     -31.07430000     -72.18170000
C      -47.21310000     -33.31660000     -74.35210000
C      -45.50730000     -34.41530000     -73.11950000
C      -45.43390000     -35.10100000     -74.28040000
S      -48.53180000     -32.17800000     -74.44530000
S      -46.65120000     -34.51600000     -75.54040000
H      -44.70160000     -35.78500000     -74.60090000
