40
Properties=species:S:1:pos:R:3 #=T CELL(abcABC):=T 1.889726e+02=T 90.00000=T Traj:=T positionsangstrom=T Step:=T 0=T Bead:=T pbc="F F F"
C      -47.87040000     -33.65960000     -69.96770000
C      -47.65850000     -34.94590000     -70.42320000
C      -46.55010000     -35.72290000     -69.93990000
C      -45.43520000     -35.14620000     -69.27870000
C      -45.62790000     -33.78280000     -68.91990000
C      -46.77040000     -33.06570000     -69.26790000
H      -48.81280000     -33.13520000     -70.11780000
H      -46.48580000     -36.74760000     -70.41340000
H      -44.92470000     -33.21600000     -68.32750000
H      -46.76640000     -31.95170000     -69.10050000
C      -44.24980000     -36.07070000     -68.97090000
H      -44.57270000     -37.03090000     -69.30110000
H      -44.08360000     -36.18420000     -67.86920000
C      -48.46580000     -35.64730000     -71.43670000
H      -48.68390000     -36.64680000     -71.16740000
H      -49.47670000     -35.09780000     -71.58220000
S      -42.70100000     -35.52950000     -69.73390000
S      -47.83460000     -35.83380000     -73.21050000
C      -43.25310000     -35.02980000     -71.44570000
H      -43.17190000     -35.88270000     -72.07290000
H      -44.33410000     -34.70780000     -71.35080000
C      -47.34630000     -34.12860000     -73.67430000
H      -47.94810000     -33.41160000     -73.06660000
H      -47.57430000     -33.96710000     -74.76560000
C      -45.87170000     -33.89120000     -73.26880000
H      -45.76530000     -34.43480000     -72.36740000
H      -45.04320000     -34.37260000     -73.82600000
C      -42.54040000     -33.86690000     -72.04620000
H      -42.68400000     -33.86470000     -73.13120000
H      -41.47770000     -33.96050000     -71.97470000
C      -43.09430000     -32.54400000     -71.63810000
C      -42.58220000     -31.63690000     -70.75280000
C      -44.39750000     -31.94980000     -72.20060000
H      -41.58790000     -31.68400000     -70.36630000
C      -44.60280000     -30.60240000     -71.75160000
C      -45.55890000     -32.43960000     -72.97820000
C      -46.46320000     -31.36090000     -73.14800000
S      -43.41360000     -30.03160000     -70.67250000
S      -46.06480000     -29.87100000     -72.39060000
H      -47.29210000     -31.43390000     -73.83620000
