40
Properties=species:S:1:pos:R:3 #=T CELL(abcABC):=T 1.889726e+02=T 90.00000=T Traj:=T positionsangstrom=T Step:=T 0=T Bead:=T pbc="F F F"
C      -41.53730000     -34.11580000     -72.65800000
C      -42.57270000     -35.01030000     -72.83830000
C      -43.08010000     -35.63360000     -71.68490000
C      -42.54040000     -35.38500000     -70.38890000
C      -41.46740000     -34.48490000     -70.24710000
C      -40.99710000     -33.90960000     -71.40690000
H      -41.07190000     -33.70600000     -73.55170000
H      -43.79320000     -36.48150000     -71.62670000
H      -41.04570000     -34.45280000     -69.21620000
H      -40.14950000     -33.24550000     -71.34950000
C      -43.18300000     -36.20310000     -69.19960000
H      -42.49470000     -36.46210000     -68.35900000
H      -43.51370000     -37.16970000     -69.49100000
C      -43.26180000     -35.40210000     -74.12550000
H      -43.06830000     -34.73010000     -75.00210000
H      -43.04720000     -36.41590000     -74.44050000
S      -44.61560000     -35.51110000     -68.28420000
S      -45.04340000     -35.66920000     -73.95690000
C      -45.29210000     -33.96310000     -69.24320000
H      -44.83030000     -33.14350000     -68.67800000
H      -44.92230000     -34.08460000     -70.22160000
C      -45.64390000     -33.89980000     -73.72350000
H      -45.80200000     -33.57540000     -74.74420000
H      -44.80950000     -33.35560000     -73.27170000
C      -46.91500000     -33.96530000     -72.93860000
H      -47.74570000     -34.31530000     -73.51860000
H      -46.71360000     -34.60950000     -72.09950000
C      -46.78750000     -33.81000000     -69.29860000
H      -47.19050000     -33.79460000     -68.38430000
H      -47.26480000     -34.65310000     -69.88290000
C      -47.05480000     -32.39680000     -69.78260000
C      -47.20850000     -31.39890000     -68.87870000
C      -47.24430000     -31.97720000     -71.15590000
H      -46.92330000     -31.48580000     -67.84220000
C      -47.49100000     -30.61710000     -71.13830000
C      -47.22750000     -32.52880000     -72.48970000
C      -47.55240000     -31.57530000     -73.46810000
S      -47.39870000     -29.82550000     -69.61870000
S      -47.76410000     -29.97580000     -72.76560000
H      -47.78650000     -31.72640000     -74.54060000
