40
Properties=species:S:1:pos:R:3 #=T CELL(abcABC):=T 1.889726e+02=T 90.00000=T Traj:=T positionsangstrom=T Step:=T 0=T Bead:=T pbc="F F F"
C      -47.68070000     -33.75150000     -70.28490000
C      -47.49160000     -35.09500000     -70.62700000
C      -46.32210000     -35.76890000     -70.40740000
C      -45.35210000     -35.15910000     -69.50820000
C      -45.66220000     -33.89860000     -69.05520000
C      -46.76630000     -33.18030000     -69.41380000
H      -48.60060000     -33.27740000     -70.58210000
H      -46.08570000     -36.74650000     -70.87960000
H      -44.90110000     -33.53990000     -68.34260000
H      -46.87630000     -32.10500000     -69.19790000
C      -44.18650000     -35.89630000     -68.96240000
H      -44.22540000     -36.97970000     -69.15050000
H      -44.13670000     -35.75910000     -67.83100000
C      -48.54350000     -35.71350000     -71.52870000
H      -48.92290000     -36.65740000     -71.15870000
H      -49.46310000     -35.06160000     -71.52060000
S      -42.54810000     -35.26430000     -69.55620000
S      -47.86440000     -35.96530000     -73.23620000
C      -42.91570000     -35.23930000     -71.43400000
H      -42.33050000     -36.00540000     -71.87260000
H      -43.96450000     -35.61770000     -71.53620000
C      -47.33520000     -34.16240000     -73.53680000
H      -47.98650000     -33.55480000     -72.93740000
H      -47.54170000     -33.91480000     -74.54490000
C      -45.89080000     -33.86530000     -73.27600000
H      -45.48800000     -34.48210000     -72.47050000
H      -45.40410000     -34.04110000     -74.22480000
C      -42.61970000     -33.84300000     -72.02470000
H      -42.84290000     -33.90400000     -73.10640000
H      -41.52610000     -33.61590000     -71.84950000
C      -43.33350000     -32.49480000     -71.57060000
C      -42.74840000     -31.66710000     -70.62160000
C      -44.53170000     -31.94040000     -72.08380000
H      -41.85750000     -31.73150000     -70.10340000
C      -44.68100000     -30.59210000     -71.70900000
C      -45.66190000     -32.39330000     -72.87130000
C      -46.65290000     -31.43820000     -72.95050000
S      -43.47430000     -30.00920000     -70.58280000
S      -46.14310000     -29.77700000     -72.34370000
H      -47.58050000     -31.44190000     -73.49300000
