40
Properties=species:S:1:pos:R:3 #=T CELL(abcABC):=T 1.889726e+02=T 90.00000=T Traj:=T positionsangstrom=T Step:=T 0=T Bead:=T pbc="F F F"
C      -48.80560000     -32.16920000     -71.04730000
C      -48.01820000     -31.70660000     -70.01200000
C      -46.95270000     -30.82400000     -70.33820000
C      -46.68910000     -30.45370000     -71.64810000
C      -47.52520000     -30.94770000     -72.70480000
C      -48.55570000     -31.78070000     -72.35310000
H      -49.61520000     -32.89330000     -70.82730000
H      -46.31310000     -30.30530000     -69.61770000
H      -47.31340000     -30.80300000     -73.77840000
H      -49.10760000     -32.23760000     -73.22280000
C      -45.64960000     -29.41380000     -72.00430000
H      -45.04720000     -29.04860000     -71.13810000
H      -46.22670000     -28.51410000     -72.48560000
C      -48.29180000     -32.11510000     -68.62950000
H      -47.65600000     -31.53590000     -68.01990000
H      -49.34360000     -31.87790000     -68.36350000
S      -44.51440000     -29.97490000     -73.41340000
S      -47.96080000     -33.96790000     -68.39280000
C      -44.22220000     -31.84960000     -73.13030000
H      -45.03550000     -32.44180000     -73.61480000
H      -43.33200000     -32.14890000     -73.67320000
C      -46.41260000     -34.23300000     -69.28450000
H      -45.90690000     -35.04700000     -68.69090000
H      -45.84690000     -33.34460000     -69.11150000
C      -46.44050000     -34.68510000     -70.80660000
H      -47.36400000     -35.22130000     -70.95300000
H      -46.49390000     -33.76860000     -71.38420000
C      -44.02430000     -32.37710000     -71.70910000
H      -44.99640000     -32.48970000     -71.14210000
H      -43.47850000     -31.56900000     -71.17280000
C      -43.28730000     -33.66800000     -71.51460000
C      -41.90610000     -33.72470000     -71.65390000
C      -43.92950000     -34.99570000     -71.43370000
H      -41.25530000     -32.94840000     -71.86360000
C      -42.95280000     -36.01450000     -71.61710000
C      -45.31570000     -35.52910000     -71.31540000
C      -45.26510000     -36.89230000     -71.40240000
S      -41.33730000     -35.42200000     -71.81110000
S      -43.68200000     -37.50550000     -71.96510000
H      -46.13880000     -37.54810000     -71.27980000
