40
Properties=species:S:1:pos:R:3 #=T CELL(abcABC):=T 1.889726e+02=T 90.00000=T Traj:=T positionsangstrom=T Step:=T 0=T Bead:=T pbc="F F F"
C      -42.31920000     -32.21930000     -69.17890000
C      -42.39870000     -33.58330000     -69.44620000
C      -43.38870000     -34.35020000     -68.85840000
C      -44.32890000     -33.77290000     -68.00390000
C      -44.23300000     -32.43120000     -67.78220000
C      -43.29420000     -31.60880000     -68.36920000
H      -41.48240000     -31.71030000     -69.66990000
H      -43.47410000     -35.38100000     -69.05540000
H      -45.07820000     -31.93220000     -67.25790000
H      -43.13100000     -30.62540000     -67.86930000
C      -45.39920000     -34.54820000     -67.32510000
H      -45.41430000     -34.69720000     -66.19320000
H      -45.37010000     -35.58500000     -67.63150000
C      -41.42970000     -34.27840000     -70.32440000
H      -40.41300000     -34.02000000     -70.13620000
H      -41.56560000     -35.31570000     -70.32760000
S      -47.11010000     -33.97600000     -67.85660000
S      -41.59360000     -33.82410000     -72.18850000
C      -47.08910000     -34.06090000     -69.68740000
H      -46.53150000     -34.94470000     -70.01160000
H      -48.13910000     -34.26160000     -70.02270000
C      -43.33450000     -33.36880000     -72.40270000
H      -43.29220000     -32.80300000     -73.39200000
H      -43.75580000     -32.71670000     -71.61900000
C      -44.27550000     -34.57290000     -72.66420000
H      -43.81620000     -35.48320000     -73.10430000
H      -44.65510000     -34.95920000     -71.71840000
C      -46.56320000     -32.82510000     -70.36240000
H      -45.43700000     -32.88820000     -70.32100000
H      -46.86650000     -31.94860000     -69.84300000
C      -47.09220000     -32.74090000     -71.77460000
C      -48.23640000     -31.98530000     -72.02720000
C      -46.55830000     -33.27050000     -73.02690000
H      -48.71570000     -31.40630000     -71.18620000
C      -47.37740000     -32.89440000     -74.16830000
C      -45.44430000     -34.06220000     -73.49620000
C      -45.46950000     -34.28250000     -74.85390000
S      -48.83700000     -31.99980000     -73.70060000
S      -46.84930000     -33.58200000     -75.64680000
H      -44.76340000     -34.96560000     -75.25930000
