40
Properties=species:S:1:pos:R:3 #=T CELL(abcABC):=T 1.889726e+02=T 90.00000=T Traj:=T positionsangstrom=T Step:=T 0=T Bead:=T pbc="F F F"
C      -47.09780000     -34.72180000     -69.87840000
C      -46.45740000     -35.97040000     -70.20160000
C      -45.07690000     -36.11920000     -70.08500000
C      -44.29810000     -35.14640000     -69.47380000
C      -44.91090000     -33.90390000     -69.22720000
C      -46.27650000     -33.64560000     -69.43050000
H      -48.22500000     -34.73920000     -69.86740000
H      -44.58250000     -37.07970000     -70.33080000
H      -44.37220000     -33.02670000     -68.98510000
H      -46.67950000     -32.68150000     -69.33240000
C      -42.75570000     -35.22870000     -69.24960000
H      -42.45360000     -36.11070000     -69.82100000
H      -42.47510000     -35.29700000     -68.22220000
C      -47.21530000     -37.02130000     -70.89930000
H      -46.86960000     -37.94370000     -70.55930000
H      -48.29480000     -36.86530000     -70.66420000
S      -41.80400000     -33.88050000     -70.06910000
S      -46.91340000     -36.72370000     -72.74500000
C      -42.60170000     -33.92390000     -71.74460000
H      -42.03490000     -34.57720000     -72.46450000
H      -43.57830000     -34.47140000     -71.65690000
C      -47.18500000     -34.97880000     -73.04580000
H      -47.73450000     -34.58890000     -72.21370000
H      -47.86970000     -34.90730000     -73.91980000
C      -45.92040000     -34.14830000     -73.17750000
H      -45.11810000     -34.60690000     -72.55670000
H      -45.51780000     -34.21050000     -74.18740000
C      -42.80100000     -32.59780000     -72.38970000
H      -43.13170000     -32.66340000     -73.45920000
H      -41.88440000     -31.97800000     -72.42650000
C      -43.94640000     -31.71570000     -71.75170000
C      -43.66860000     -30.65190000     -70.97410000
C      -45.32920000     -31.75990000     -72.20830000
H      -42.68590000     -30.24940000     -70.68420000
C      -46.01200000     -30.61390000     -71.82230000
C      -46.21730000     -32.70510000     -72.92720000
C      -47.47510000     -32.13800000     -73.05990000
S      -45.09050000     -29.50090000     -70.73600000
S      -47.64160000     -30.57580000     -72.28720000
H      -48.37280000     -32.47220000     -73.49040000
