40
Properties=species:S:1:pos:R:3 #=T CELL(abcABC):=T 1.889726e+02=T 90.00000=T Traj:=T positionsangstrom=T Step:=T 0=T Bead:=T pbc="F F F"
C      -47.40140000     -34.47080000     -70.09540000
C      -46.71540000     -35.67470000     -70.52380000
C      -45.44000000     -35.95580000     -70.01460000
C      -44.84290000     -35.01690000     -69.13320000
C      -45.58610000     -33.98020000     -68.56190000
C      -46.92760000     -33.77530000     -69.04500000
H      -48.30930000     -34.10080000     -70.56890000
H      -44.95790000     -36.82890000     -70.45010000
H      -45.16360000     -33.38540000     -67.77380000
H      -47.48970000     -32.83200000     -68.72080000
C      -43.37510000     -35.18070000     -68.85230000
H      -43.00070000     -36.17040000     -68.96010000
H      -43.25030000     -34.97670000     -67.77960000
C      -47.42820000     -36.60640000     -71.52420000
H      -47.31820000     -37.66790000     -71.15520000
H      -48.51080000     -36.53960000     -71.45780000
S      -42.26330000     -33.89220000     -69.75280000
S      -46.90930000     -36.52610000     -73.27860000
C      -42.76650000     -34.30570000     -71.50360000
H      -42.23320000     -35.16510000     -71.85750000
H      -43.83410000     -34.67460000     -71.42230000
C      -47.06610000     -34.82490000     -73.90090000
H      -48.13550000     -34.47370000     -73.68870000
H      -47.04490000     -35.00920000     -74.97920000
C      -45.89730000     -33.90440000     -73.51100000
H      -45.28900000     -34.50500000     -72.78800000
H      -45.40230000     -33.61140000     -74.42660000
C      -42.63740000     -33.15880000     -72.48650000
H      -42.87650000     -33.53480000     -73.48360000
H      -41.62770000     -32.71590000     -72.51670000
C      -43.57990000     -31.98000000     -72.13110000
C      -43.03560000     -30.89960000     -71.47720000
C      -45.05370000     -31.88790000     -72.14160000
H      -41.95440000     -30.63040000     -71.39550000
C      -45.50260000     -30.66860000     -71.62580000
C      -46.21280000     -32.63760000     -72.71220000
C      -47.41290000     -32.05190000     -72.49500000
S      -44.27710000     -29.69160000     -71.05590000
S      -47.29610000     -30.54810000     -71.63370000
H      -48.37400000     -32.50630000     -72.86620000
