40
Properties=species:S:1:pos:R:3 #=T CELL(abcABC):=T 1.889726e+02=T 90.00000=T Traj:=T positionsangstrom=T Step:=T 0=T Bead:=T pbc="F F F"
C      -42.17050000     -32.30800000     -68.84690000
C      -42.33400000     -33.54780000     -69.40680000
C      -43.45510000     -34.29190000     -68.99810000
C      -44.32610000     -33.88490000     -68.00760000
C      -44.15210000     -32.58150000     -67.48550000
C      -43.04980000     -31.84800000     -67.86670000
H      -41.29270000     -31.73610000     -69.01860000
H      -43.54210000     -35.31830000     -69.36450000
H      -44.85300000     -32.34320000     -66.65550000
H      -42.88220000     -30.89030000     -67.46090000
C      -45.41420000     -34.77310000     -67.54140000
H      -45.49120000     -34.67810000     -66.45080000
H      -45.07840000     -35.86680000     -67.70830000
C      -41.49510000     -34.08630000     -70.52850000
H      -40.46490000     -34.02950000     -70.27670000
H      -41.65610000     -35.16510000     -70.65430000
S      -47.05910000     -34.30730000     -68.10450000
S      -41.68850000     -33.22460000     -72.18660000
C      -47.02970000     -34.12890000     -69.92840000
H      -46.31050000     -34.81540000     -70.38680000
H      -48.03050000     -34.33250000     -70.36160000
C      -43.38100000     -32.94110000     -72.51310000
H      -43.44040000     -32.52390000     -73.46900000
H      -43.70520000     -32.16340000     -71.78220000
C      -44.18890000     -34.20130000     -72.49620000
H      -43.76510000     -35.09410000     -72.90330000
H      -44.39040000     -34.46520000     -71.48080000
C      -46.66760000     -32.66500000     -70.41610000
H      -45.60550000     -32.56380000     -70.26120000
H      -47.22690000     -31.94720000     -69.72230000
C      -47.14970000     -32.55980000     -71.85540000
C      -48.39250000     -32.02950000     -72.12680000
C      -46.59690000     -33.21240000     -73.02750000
H      -49.04680000     -31.62710000     -71.39190000
C      -47.48750000     -33.19560000     -74.04400000
C      -45.35300000     -33.98420000     -73.36050000
C      -45.37400000     -34.35530000     -74.68450000
S      -48.86660000     -32.14200000     -73.80110000
S      -46.87380000     -33.84580000     -75.53140000
H      -44.56020000     -34.81140000     -75.28210000
