40
Properties=species:S:1:pos:R:3 #=T CELL(abcABC):=T 1.889726e+02=T 90.00000=T Traj:=T positionsangstrom=T Step:=T 0=T Bead:=T pbc="F F F"
C      -42.10320000     -32.62840000     -69.29380000
C      -42.62680000     -33.91130000     -69.25110000
C      -43.75640000     -34.16940000     -68.43700000
C      -44.29860000     -33.17020000     -67.66760000
C      -43.74360000     -31.86290000     -67.73840000
C      -42.62670000     -31.63190000     -68.48510000
H      -41.16830000     -32.51360000     -69.88480000
H      -44.07430000     -35.16460000     -68.34360000
H      -44.14130000     -31.09560000     -67.07510000
H      -42.10110000     -30.74570000     -68.40020000
C      -45.52870000     -33.52420000     -66.91590000
H      -45.50470000     -32.85800000     -65.98110000
H      -45.50390000     -34.57640000     -66.66400000
C      -42.02490000     -35.00080000     -70.06770000
H      -41.13380000     -35.42910000     -69.61110000
H      -42.66330000     -35.83850000     -70.12680000
S      -47.14450000     -33.18300000     -67.90140000
S      -41.61280000     -34.58010000     -71.82780000
C      -46.91390000     -33.68630000     -69.67830000
H      -46.10580000     -34.46020000     -69.69040000
H      -47.83090000     -34.26120000     -69.90520000
C      -43.00890000     -33.55040000     -72.61070000
H      -42.60350000     -33.07950000     -73.57570000
H      -43.14510000     -32.75890000     -71.84010000
C      -44.25910000     -34.38570000     -72.63120000
H      -43.92720000     -35.42110000     -72.85690000
H      -44.61970000     -34.45700000     -71.57520000
C      -46.60410000     -32.48560000     -70.61360000
H      -45.52440000     -32.39200000     -70.69530000
H      -47.03860000     -31.60470000     -70.12710000
C      -47.17430000     -32.59540000     -71.97550000
C      -48.42560000     -32.08520000     -72.27700000
C      -46.59160000     -33.27880000     -73.18970000
H      -49.01590000     -31.52060000     -71.61100000
C      -47.43170000     -33.18940000     -74.32630000
C      -45.37720000     -33.96800000     -73.59160000
C      -45.34510000     -34.23050000     -74.95960000
S      -48.94100000     -32.35270000     -73.96290000
S      -46.87770000     -33.91110000     -75.75490000
H      -44.54670000     -34.84010000     -75.41690000
