40
Properties=species:S:1:pos:R:3 #=T CELL(abcABC):=T 1.889726e+02=T 90.00000=T Traj:=T positionsangstrom=T Step:=T 0=T Bead:=T pbc="F F F"
C      -43.89760000     -36.22430000     -72.49940000
C      -43.44280000     -35.10480000     -73.24570000
C      -44.28020000     -34.61700000     -74.24510000
C      -45.57400000     -35.09350000     -74.39830000
C      -45.92440000     -36.28180000     -73.71620000
C      -45.10070000     -36.83820000     -72.72040000
H      -43.25820000     -36.70390000     -71.74390000
H      -44.10530000     -33.55410000     -74.69650000
H      -46.95300000     -36.60470000     -73.62830000
H      -45.42530000     -37.72010000     -72.28010000
C      -46.57370000     -34.46960000     -75.29640000
H      -47.55310000     -34.96630000     -75.17770000
H      -46.26910000     -34.40180000     -76.31230000
C      -42.26460000     -34.29300000     -72.89250000
H      -41.41640000     -34.35420000     -73.51520000
H      -42.47450000     -33.17870000     -73.03710000
S      -46.72860000     -32.71530000     -74.92300000
S      -41.47410000     -34.48800000     -71.17190000
C      -47.33140000     -32.49660000     -73.21370000
H      -47.92070000     -31.61860000     -73.42090000
H      -48.05790000     -33.32550000     -72.98760000
C      -42.94990000     -34.11650000     -70.10830000
H      -42.57370000     -34.34550000     -69.06510000
H      -43.81080000     -34.74040000     -70.30520000
C      -43.38210000     -32.56790000     -70.28900000
H      -42.55050000     -31.97170000     -69.89130000
H      -43.59700000     -32.33510000     -71.34680000
C      -46.32070000     -32.36590000     -72.13630000
H      -45.74600000     -31.46410000     -72.39130000
H      -45.71940000     -33.29340000     -72.20040000
C      -46.82330000     -32.12390000     -70.72660000
C      -48.12720000     -31.86330000     -70.35920000
C      -45.91730000     -32.17930000     -69.57790000
H      -48.86640000     -31.82300000     -71.05340000
C      -46.64580000     -32.01250000     -68.42060000
C      -44.51120000     -32.25310000     -69.36930000
C      -44.26560000     -32.21440000     -68.01540000
S      -48.35380000     -31.70740000     -68.64980000
S      -45.68200000     -32.03140000     -66.96980000
H      -43.27060000     -32.27260000     -67.55130000
