40
Properties=species:S:1:pos:R:3 #=T CELL(abcABC):=T 1.889726e+02=T 90.00000=T Traj:=T positionsangstrom=T Step:=T 0=T Bead:=T pbc="F F F"
C      -42.46060000     -32.02830000     -68.22000000
C      -42.65810000     -33.11280000     -69.19170000
C      -43.62950000     -34.01310000     -68.98140000
C      -44.55330000     -33.87670000     -67.90830000
C      -44.33560000     -32.88070000     -66.99720000
C      -43.37290000     -31.89380000     -67.19740000
H      -41.66460000     -31.28870000     -68.41490000
H      -43.73430000     -34.93780000     -69.56480000
H      -45.00340000     -32.81340000     -66.15220000
H      -43.32230000     -31.05370000     -66.44300000
C      -45.62000000     -34.96730000     -67.70790000
H      -45.64580000     -35.34950000     -66.67060000
H      -45.42250000     -35.71180000     -68.40850000
C      -41.57570000     -33.18680000     -70.24160000
H      -40.55500000     -33.07210000     -69.87340000
H      -41.54580000     -34.20670000     -70.63570000
S      -47.31100000     -34.42490000     -67.99930000
S      -41.79840000     -31.97460000     -71.62340000
C      -47.57490000     -34.69550000     -69.80830000
H      -47.49260000     -35.76380000     -70.07760000
H      -48.62770000     -34.49480000     -70.00420000
C      -43.54470000     -31.99540000     -72.04300000
H      -43.64170000     -31.14410000     -72.72320000
H      -44.18040000     -31.69750000     -71.21120000
C      -43.82430000     -33.38960000     -72.65890000
H      -42.91300000     -33.64600000     -73.09500000
H      -43.86580000     -34.07850000     -71.79570000
C      -46.71800000     -33.79130000     -70.75830000
H      -45.66030000     -34.15210000     -70.90080000
H      -46.54050000     -32.84260000     -70.25800000
C      -47.28170000     -33.57070000     -72.14920000
C      -48.56500000     -33.65040000     -72.52270000
C      -46.39520000     -33.37020000     -73.33360000
H      -49.41170000     -33.83500000     -71.85770000
C      -47.14590000     -33.38680000     -74.53310000
C      -44.98230000     -33.41900000     -73.60510000
C      -44.70050000     -33.33400000     -75.00470000
S      -48.86220000     -33.69200000     -74.23690000
S      -46.12120000     -33.46710000     -75.90210000
H      -43.71800000     -33.43290000     -75.38640000
