40
Properties=species:S:1:pos:R:3 #=T CELL(abcABC):=T 1.889726e+02=T 90.00000=T Traj:=T positionsangstrom=T Step:=T 0=T Bead:=T pbc="F F F"
C      -42.09910000     -32.36710000     -68.68920000
C      -42.33690000     -33.46330000     -69.45650000
C      -43.30790000     -34.37920000     -69.02630000
C      -44.13410000     -34.14060000     -67.96960000
C      -43.92010000     -33.01600000     -67.18160000
C      -42.99030000     -32.08110000     -67.61580000
H      -41.23870000     -31.67730000     -68.96130000
H      -43.37130000     -35.33200000     -69.65040000
H      -44.55170000     -32.78750000     -66.28800000
H      -42.99560000     -31.09490000     -67.09580000
C      -45.31470000     -35.06930000     -67.64390000
H      -45.26670000     -35.31710000     -66.57610000
H      -45.32620000     -36.17090000     -68.12090000
C      -41.48820000     -33.72370000     -70.66240000
H      -40.42600000     -33.68450000     -70.34530000
H      -41.69680000     -34.70710000     -71.07720000
S      -46.89100000     -34.12330000     -68.04760000
S      -41.61780000     -32.47860000     -72.01580000
C      -47.01960000     -34.15410000     -69.87940000
H      -46.29280000     -34.85180000     -70.27140000
H      -48.02800000     -34.49530000     -70.08400000
C      -43.42970000     -32.36790000     -72.34910000
H      -43.58710000     -31.79870000     -73.28290000
H      -43.90620000     -31.87850000     -71.46820000
C      -44.18780000     -33.84150000     -72.54870000
H      -43.48610000     -34.63790000     -72.84310000
H      -44.38410000     -34.18920000     -71.53610000
C      -46.83010000     -32.75660000     -70.53990000
H      -45.77360000     -32.44340000     -70.52550000
H      -47.37300000     -32.02090000     -69.98250000
C      -47.36480000     -32.76720000     -71.97210000
C      -48.59870000     -32.26110000     -72.27790000
C      -46.70360000     -33.35410000     -73.10970000
H      -49.40210000     -31.99040000     -71.55890000
C      -47.56650000     -33.32510000     -74.22140000
C      -45.41390000     -33.89910000     -73.42860000
C      -45.28350000     -34.26290000     -74.72400000
S      -49.11140000     -32.59920000     -73.86980000
S      -46.87540000     -34.10800000     -75.62260000
H      -44.32910000     -34.42510000     -75.18940000
