40
Properties=species:S:1:pos:R:3 #=T CELL(abcABC):=T 1.889726e+02=T 90.00000=T Traj:=T positionsangstrom=T Step:=T 0=T Bead:=T pbc="F F F"
C      -42.48370000     -32.01200000     -68.37350000
C      -42.53540000     -33.14520000     -69.18940000
C      -43.55740000     -34.10520000     -68.94440000
C      -44.44240000     -34.03890000     -67.91290000
C      -44.29240000     -32.96620000     -67.03040000
C      -43.40420000     -31.95620000     -67.28600000
H      -41.68250000     -31.21140000     -68.48260000
H      -43.68570000     -34.91280000     -69.63900000
H      -44.97510000     -32.74620000     -66.21030000
H      -43.24960000     -31.19210000     -66.56020000
C      -45.53460000     -35.05220000     -67.77170000
H      -45.57150000     -35.37710000     -66.70950000
H      -45.31170000     -35.98950000     -68.33080000
C      -41.63900000     -33.28950000     -70.38400000
H      -40.60060000     -33.27440000     -70.08910000
H      -41.90080000     -34.15560000     -70.94590000
S      -47.22800000     -34.33600000     -67.95530000
S      -41.75860000     -31.84980000     -71.55860000
C      -47.60410000     -34.45550000     -69.76550000
H      -47.51500000     -35.52120000     -69.99420000
H      -48.65330000     -34.23890000     -69.79140000
C      -43.54980000     -32.10240000     -72.17910000
H      -43.66550000     -31.39970000     -73.01820000
H      -44.28120000     -31.94380000     -71.39980000
C      -43.80430000     -33.62900000     -72.63020000
H      -42.96220000     -34.16380000     -73.11940000
H      -44.06140000     -34.27270000     -71.75710000
C      -46.75230000     -33.55940000     -70.71840000
H      -45.70950000     -33.96150000     -70.59200000
H      -46.73370000     -32.52510000     -70.40600000
C      -47.26230000     -33.62130000     -72.11440000
C      -48.56580000     -33.56910000     -72.44490000
C      -46.39210000     -33.66980000     -73.33450000
H      -49.45090000     -33.58010000     -71.80430000
C      -47.15890000     -33.54350000     -74.45050000
C      -44.98040000     -33.69040000     -73.62010000
C      -44.75310000     -33.60730000     -75.00480000
S      -48.91360000     -33.35590000     -74.20260000
S      -46.24980000     -33.45860000     -75.91040000
H      -43.80640000     -33.52910000     -75.42510000
