40
Properties=species:S:1:pos:R:3 #=T CELL(abcABC):=T 1.889726e+02=T 90.00000=T Traj:=T positionsangstrom=T Step:=T 0=T Bead:=T pbc="F F F"
C      -42.42810000     -32.03270000     -68.42430000
C      -42.48430000     -33.18200000     -69.27940000
C      -43.43440000     -34.13300000     -69.02350000
C      -44.38160000     -34.05760000     -67.96910000
C      -44.30160000     -32.94990000     -67.17100000
C      -43.30030000     -32.01820000     -67.40340000
H      -41.60500000     -31.36600000     -68.50020000
H      -43.49720000     -34.95860000     -69.78490000
H      -44.92940000     -32.73900000     -66.33810000
H      -43.15750000     -31.15890000     -66.73850000
C      -45.44010000     -35.09120000     -67.82060000
H      -45.36610000     -35.48650000     -66.80270000
H      -45.45780000     -35.79520000     -68.64860000
C      -41.46660000     -33.27960000     -70.37570000
H      -40.54260000     -32.94580000     -69.99450000
H      -41.27900000     -34.23370000     -70.78190000
S      -47.12790000     -34.42750000     -68.04380000
S      -41.79660000     -31.97180000     -71.68620000
C      -47.39850000     -34.46460000     -69.86780000
H      -47.09500000     -35.45280000     -70.21830000
H      -48.47090000     -34.42090000     -70.03600000
C      -43.61560000     -32.34170000     -72.13100000
H      -43.91180000     -31.48440000     -72.70910000
H      -44.29830000     -32.33360000     -71.27320000
C      -43.79560000     -33.71140000     -72.79560000
H      -42.97990000     -34.13870000     -73.39590000
H      -43.94020000     -34.48630000     -72.00700000
C      -46.63060000     -33.38210000     -70.61990000
H      -45.61570000     -33.74410000     -70.74400000
H      -46.56910000     -32.42040000     -70.05860000
C      -47.21470000     -33.22360000     -72.00130000
C      -48.55390000     -33.15370000     -72.23430000
C      -46.47680000     -33.46880000     -73.22960000
H      -49.35990000     -33.14620000     -71.47200000
C      -47.32230000     -33.39110000     -74.39260000
C      -45.09140000     -33.72570000     -73.56620000
C      -44.97400000     -33.97140000     -74.96090000
S      -49.01710000     -33.01770000     -73.97790000
S      -46.41120000     -33.72580000     -75.85310000
H      -44.07890000     -34.33000000     -75.54110000
