40
Properties=species:S:1:pos:R:3 #=T CELL(abcABC):=T 1.889726e+02=T 90.00000=T Traj:=T positionsangstrom=T Step:=T 0=T Bead:=T pbc="F F F"
C      -42.18390000     -32.22300000     -68.48830000
C      -42.36340000     -33.27720000     -69.38240000
C      -43.45880000     -34.21930000     -69.15360000
C      -44.24660000     -34.05970000     -68.01120000
C      -44.08130000     -32.93780000     -67.19740000
C      -43.03910000     -32.08210000     -67.40050000
H      -41.42630000     -31.53670000     -68.76490000
H      -43.55500000     -35.07150000     -69.73190000
H      -44.79610000     -32.92770000     -66.32730000
H      -42.80840000     -31.24530000     -66.74680000
C      -45.38450000     -35.04270000     -67.70710000
H      -45.43320000     -35.20800000     -66.54430000
H      -45.17730000     -36.00520000     -68.23490000
C      -41.47510000     -33.44760000     -70.59410000
H      -40.47830000     -33.34020000     -70.24490000
H      -41.52150000     -34.44260000     -70.95630000
S      -47.10790000     -34.41040000     -68.02200000
S      -41.74370000     -32.14250000     -71.90510000
C      -47.24500000     -34.24840000     -69.85030000
H      -46.81770000     -35.07430000     -70.39300000
H      -48.31740000     -34.27900000     -69.98720000
C      -43.53330000     -32.32060000     -72.43390000
H      -43.54470000     -31.64710000     -73.34550000
H      -44.02780000     -31.78270000     -71.65330000
C      -43.95540000     -33.71270000     -72.68500000
H      -43.12030000     -34.24060000     -73.18540000
H      -44.10010000     -34.13720000     -71.66550000
C      -46.73370000     -32.99690000     -70.48890000
H      -45.61550000     -32.92840000     -70.44280000
H      -47.05330000     -32.12130000     -69.92070000
C      -47.25950000     -32.98360000     -71.96110000
C      -48.53710000     -32.62790000     -72.25210000
C      -46.59240000     -33.44230000     -73.12980000
H      -49.22850000     -32.14370000     -71.63810000
C      -47.40310000     -33.43260000     -74.24340000
C      -45.21900000     -33.86040000     -73.48640000
C      -45.15360000     -34.17480000     -74.81020000
S      -49.01390000     -32.87340000     -73.87290000
S      -46.68250000     -33.96270000     -75.75750000
H      -44.23060000     -34.50060000     -75.26360000
