40
Properties=species:S:1:pos:R:3 #=T CELL(abcABC):=T 1.889726e+02=T 90.00000=T Traj:=T positionsangstrom=T Step:=T 0=T Bead:=T pbc="F F F"
C      -42.43840000     -32.07740000     -68.29330000
C      -42.42260000     -33.16740000     -69.13630000
C      -43.43060000     -34.19380000     -68.96070000
C      -44.39380000     -34.06950000     -67.98060000
C      -44.37220000     -32.92190000     -67.17950000
C      -43.38540000     -31.93360000     -67.25830000
H      -41.80370000     -31.18980000     -68.46830000
H      -43.26570000     -35.06090000     -69.64670000
H      -45.03140000     -32.75490000     -66.30660000
H      -43.37850000     -31.08620000     -66.64020000
C      -45.48750000     -35.14950000     -67.82210000
H      -45.31570000     -35.63980000     -66.90270000
H      -45.38650000     -35.99130000     -68.62550000
C      -41.49480000     -33.21470000     -70.36390000
H      -40.41430000     -33.13580000     -70.09450000
H      -41.70470000     -34.24210000     -70.84610000
S      -47.17920000     -34.31470000     -67.94920000
S      -41.94800000     -31.92070000     -71.60730000
C      -47.51720000     -34.55250000     -69.75820000
H      -47.27300000     -35.56330000     -70.13460000
H      -48.57970000     -34.32880000     -69.88200000
C      -43.56240000     -32.23410000     -72.30050000
H      -43.46620000     -31.67460000     -73.24010000
H      -44.40090000     -31.72510000     -71.80200000
C      -43.88840000     -33.74160000     -72.71730000
H      -42.96800000     -34.19820000     -73.13350000
H      -44.14430000     -34.17630000     -71.77710000
C      -46.72230000     -33.51070000     -70.60180000
H      -45.64990000     -33.68090000     -70.54110000
H      -46.90260000     -32.51670000     -70.13590000
C      -47.18350000     -33.39490000     -72.05100000
C      -48.50720000     -33.22140000     -72.34450000
C      -46.41330000     -33.61700000     -73.32510000
H      -49.28680000     -32.92060000     -71.67890000
C      -47.23230000     -33.55670000     -74.44640000
C      -45.01490000     -33.75600000     -73.67020000
C      -44.74870000     -33.71290000     -75.04220000
S      -48.90300000     -33.21780000     -74.06180000
S      -46.33830000     -33.55770000     -75.93610000
H      -43.81210000     -33.61820000     -75.57540000
