40
Properties=species:S:1:pos:R:3 #=T CELL(abcABC):=T 1.889726e+02=T 90.00000=T Traj:=T positionsangstrom=T Step:=T 0=T Bead:=T pbc="F F F"
C      -43.50130000     -31.41280000     -68.41890000
C      -43.05820000     -32.63580000     -68.92790000
C      -43.82580000     -33.79650000     -68.57400000
C      -45.11790000     -33.66960000     -67.96750000
C      -45.53260000     -32.38230000     -67.57400000
C      -44.66140000     -31.34060000     -67.65710000
H      -42.90220000     -30.48520000     -68.68330000
H      -43.44340000     -34.78650000     -68.80900000
H      -46.49660000     -32.18450000     -67.10020000
H      -44.98670000     -30.32870000     -67.37890000
C      -45.99760000     -34.81900000     -67.56010000
H      -46.11330000     -34.79570000     -66.52040000
H      -45.48330000     -35.77360000     -67.71850000
C      -41.80760000     -32.68450000     -69.77460000
H      -40.80420000     -32.37080000     -69.46780000
H      -41.58090000     -33.66690000     -70.12540000
S      -47.64150000     -34.76760000     -68.31800000
S      -41.94810000     -31.50130000     -71.17390000
C      -47.29460000     -35.02970000     -70.02420000
H      -46.62010000     -35.93200000     -70.06590000
H      -48.19500000     -35.41220000     -70.44000000
C      -43.47520000     -32.01040000     -71.96150000
H      -43.62590000     -31.31170000     -72.84550000
H      -44.35630000     -31.72750000     -71.33690000
C      -43.58510000     -33.54720000     -72.28340000
H      -42.55720000     -33.82020000     -72.62790000
H      -43.83830000     -34.08640000     -71.40810000
C      -46.67500000     -33.83180000     -70.71730000
H      -45.57080000     -33.85690000     -70.53010000
H      -46.93560000     -32.91260000     -70.21290000
C      -46.95550000     -33.73310000     -72.22340000
C      -48.24550000     -33.73940000     -72.69780000
C      -45.97400000     -33.82000000     -73.30210000
H      -49.13470000     -33.59660000     -72.04570000
C      -46.55220000     -33.84870000     -74.60720000
C      -44.52650000     -33.73800000     -73.45470000
C      -44.09840000     -33.85830000     -74.75090000
S      -48.29980000     -33.71170000     -74.51830000
S      -45.38650000     -33.90970000     -75.92950000
H      -43.09820000     -33.83820000     -75.09600000
