40
Properties=species:S:1:pos:R:3 #=T CELL(abcABC):=T 1.889726e+02=T 90.00000=T Traj:=T positionsangstrom=T Step:=T 0=T Bead:=T pbc="F F F"
C      -42.87440000     -31.74750000     -68.27970000
C      -42.85880000     -32.93510000     -69.07340000
C      -43.78190000     -33.92210000     -68.70080000
C      -44.72320000     -33.76730000     -67.62920000
C      -44.72380000     -32.58650000     -66.93360000
C      -43.87420000     -31.54140000     -67.33690000
H      -42.23420000     -30.94540000     -68.62750000
H      -43.80650000     -34.84240000     -69.31330000
H      -45.31200000     -32.46950000     -66.01450000
H      -43.83610000     -30.61110000     -66.76240000
C      -45.69240000     -34.86050000     -67.39750000
H      -45.88080000     -34.95260000     -66.35540000
H      -45.35280000     -35.77870000     -67.78780000
C      -41.83650000     -33.17570000     -70.11200000
H      -40.85980000     -33.10250000     -69.56770000
H      -41.90930000     -34.16760000     -70.66550000
S      -47.35740000     -34.51180000     -68.17660000
S      -41.71470000     -31.91390000     -71.41920000
C      -47.08400000     -34.89420000     -69.94420000
H      -46.31190000     -35.66900000     -70.17160000
H      -48.07280000     -35.19500000     -70.24960000
C      -43.49650000     -31.91570000     -72.07490000
H      -43.62200000     -31.15000000     -72.82930000
H      -44.14660000     -31.58410000     -71.25080000
C      -43.82010000     -33.33170000     -72.54650000
H      -42.90910000     -33.72930000     -73.03520000
H      -44.04140000     -34.02090000     -71.66590000
C      -46.65000000     -33.67690000     -70.75540000
H      -45.59430000     -33.41940000     -70.58610000
H      -47.22390000     -32.77440000     -70.54150000
C      -47.05560000     -33.84110000     -72.27000000
C      -48.35310000     -34.13460000     -72.64100000
C      -46.27730000     -33.55700000     -73.44130000
H      -49.13760000     -34.55480000     -72.02610000
C      -47.00440000     -33.69830000     -74.57450000
C      -44.83150000     -33.31760000     -73.67480000
C      -44.61370000     -33.30620000     -75.03650000
S      -48.70310000     -33.97350000     -74.31210000
S      -46.05920000     -33.33580000     -76.03330000
H      -43.60390000     -33.14540000     -75.55910000
