40
Properties=species:S:1:pos:R:3 #=T CELL(abcABC):=T 1.889726e+02=T 90.00000=T Traj:=T positionsangstrom=T Step:=T 0=T Bead:=T pbc="F F F"
C      -42.71780000     -31.83620000     -68.21860000
C      -42.61810000     -33.03400000     -68.91450000
C      -43.54230000     -34.07870000     -68.72720000
C      -44.52650000     -33.86620000     -67.76690000
C      -44.61340000     -32.67910000     -67.06520000
C      -43.66670000     -31.65760000     -67.23180000
H      -41.92110000     -31.10240000     -68.35110000
H      -43.39500000     -34.98770000     -69.32610000
H      -45.54420000     -32.53120000     -66.57810000
H      -43.67900000     -30.73710000     -66.70610000
C      -45.64210000     -34.93940000     -67.50060000
H      -45.74240000     -35.04640000     -66.42110000
H      -45.42130000     -36.01010000     -67.85700000
C      -41.65890000     -33.23250000     -70.03370000
H      -40.66300000     -33.10650000     -69.62940000
H      -41.76470000     -34.19930000     -70.47270000
S      -47.33620000     -34.43340000     -68.09670000
S      -41.82630000     -31.85220000     -71.30990000
C      -47.28690000     -34.80960000     -69.92590000
H      -46.63280000     -35.65890000     -70.00980000
H      -48.23450000     -35.27600000     -70.23980000
C      -43.32510000     -32.00550000     -72.23790000
H      -43.24860000     -31.28640000     -73.02370000
H      -44.08710000     -31.62510000     -71.56390000
C      -43.71960000     -33.35570000     -72.74470000
H      -42.89760000     -33.60700000     -73.41200000
H      -43.73150000     -34.09860000     -72.00110000
C      -46.81860000     -33.60680000     -70.83060000
H      -45.74000000     -33.57480000     -70.72500000
H      -47.25400000     -32.67600000     -70.34600000
C      -47.24390000     -33.69670000     -72.26670000
C      -48.55070000     -33.90980000     -72.62240000
C      -46.41270000     -33.49180000     -73.39310000
H      -49.38120000     -34.09140000     -71.96580000
C      -47.11200000     -33.60740000     -74.59040000
C      -44.94610000     -33.31230000     -73.62740000
C      -44.69920000     -33.12650000     -74.98590000
S      -48.76180000     -34.06640000     -74.40070000
S      -46.10630000     -33.35430000     -76.00190000
H      -43.64630000     -32.97750000     -75.46580000
