40
Properties=species:S:1:pos:R:3 #=T CELL(abcABC):=T 1.889726e+02=T 90.00000=T Traj:=T positionsangstrom=T Step:=T 0=T Bead:=T pbc="F F F"
C      -43.17990000     -31.49580000     -68.21770000
C      -42.93450000     -32.77570000     -68.77700000
C      -43.78580000     -33.85830000     -68.53690000
C      -44.96830000     -33.64400000     -67.79560000
C      -45.18710000     -32.42760000     -67.24190000
C      -44.29260000     -31.36520000     -67.42370000
H      -42.55470000     -30.63870000     -68.48810000
H      -43.60240000     -34.76050000     -69.11070000
H      -46.05370000     -32.16770000     -66.73670000
H      -44.43070000     -30.40820000     -66.99480000
C      -45.85360000     -34.79030000     -67.39480000
H      -46.06350000     -34.71980000     -66.34210000
H      -45.50120000     -35.77050000     -67.82320000
C      -41.72480000     -33.06270000     -69.60640000
H      -40.83790000     -32.71250000     -69.07020000
H      -41.72870000     -34.11200000     -69.88400000
S      -47.52600000     -34.52020000     -68.24830000
S      -41.67090000     -31.97320000     -71.11790000
C      -47.24410000     -35.04480000     -70.06290000
H      -46.70660000     -36.03770000     -70.01890000
H      -48.18630000     -35.18210000     -70.56410000
C      -43.38670000     -32.24330000     -71.75070000
H      -43.61790000     -31.36480000     -72.40290000
H      -44.14050000     -32.22100000     -70.94570000
C      -43.50870000     -33.48190000     -72.80040000
H      -42.51900000     -33.55180000     -73.41930000
H      -43.61290000     -34.43110000     -72.28030000
C      -46.49190000     -33.98480000     -70.91980000
H      -45.46140000     -34.28850000     -70.99980000
H      -46.61900000     -33.00830000     -70.40510000
C      -46.97020000     -33.93150000     -72.34780000
C      -48.30550000     -33.91790000     -72.74210000
C      -46.10500000     -33.64290000     -73.49880000
H      -49.19450000     -34.03350000     -72.04860000
C      -46.89660000     -33.55870000     -74.68040000
C      -44.70200000     -33.48240000     -73.74250000
C      -44.43140000     -33.36430000     -75.07360000
S      -48.60090000     -33.78310000     -74.41500000
S      -45.86650000     -33.49230000     -76.08990000
H      -43.46480000     -33.26670000     -75.42890000
