40
Properties=species:S:1:pos:R:3 #=T CELL(abcABC):=T 1.889726e+02=T 90.00000=T Traj:=T positionsangstrom=T Step:=T 0=T Bead:=T pbc="F F F"
C      -43.72110000     -31.21620000     -68.13870000
C      -43.15930000     -32.46060000     -68.75140000
C      -43.96890000     -33.58180000     -68.61390000
C      -45.15790000     -33.58580000     -67.77450000
C      -45.52760000     -32.42770000     -67.12180000
C      -44.81260000     -31.17370000     -67.35720000
H      -43.21390000     -30.31560000     -68.29530000
H      -43.70320000     -34.54350000     -69.02190000
H      -46.38440000     -32.43870000     -66.46940000
H      -45.05420000     -30.23610000     -66.87400000
C      -45.92660000     -34.87670000     -67.60190000
H      -46.11840000     -35.11080000     -66.50860000
H      -45.38660000     -35.63530000     -68.03440000
C      -41.82380000     -32.42530000     -69.53230000
H      -41.07340000     -31.83470000     -68.95700000
H      -41.39950000     -33.41760000     -69.68050000
S      -47.58180000     -34.77170000     -68.47040000
S      -41.92180000     -31.54070000     -71.22040000
C      -47.32130000     -34.64060000     -70.32580000
H      -46.49100000     -35.29370000     -70.43490000
H      -48.16820000     -35.05270000     -70.87500000
C      -43.48710000     -31.97310000     -72.00520000
H      -43.48330000     -31.61060000     -72.99010000
H      -44.23280000     -31.51770000     -71.39040000
C      -43.75790000     -33.47460000     -72.07040000
H      -42.78170000     -33.92940000     -72.09550000
H      -44.31070000     -33.87490000     -71.17600000
C      -47.03050000     -33.23000000     -70.91790000
H      -46.10170000     -32.80290000     -70.60450000
H      -47.88370000     -32.56310000     -70.63840000
C      -47.14660000     -33.43940000     -72.44930000
C      -48.32350000     -33.49370000     -73.14690000
C      -46.02460000     -33.84760000     -73.36480000
H      -49.32810000     -33.32800000     -72.78040000
C      -46.42560000     -34.06260000     -74.67530000
C      -44.55570000     -33.84490000     -73.29670000
C      -43.95050000     -34.13700000     -74.45730000
S      -48.13370000     -33.99330000     -74.85730000
S      -45.10500000     -34.43550000     -75.75190000
H      -42.86680000     -34.21870000     -74.54790000
