40
Properties=species:S:1:pos:R:3 #=T CELL(abcABC):=T 1.889726e+02=T 90.00000=T Traj:=T positionsangstrom=T Step:=T 0=T Bead:=T pbc="F F F"
C      -43.52410000     -31.20830000     -68.37140000
C      -43.38020000     -32.61660000     -68.47160000
C      -44.53160000     -33.35880000     -68.10400000
C      -45.77140000     -32.72280000     -67.75200000
C      -45.76100000     -31.31560000     -67.63540000
C      -44.64620000     -30.54260000     -67.89130000
H      -42.59420000     -30.63380000     -68.55710000
H      -44.50760000     -34.42220000     -68.12710000
H      -46.70070000     -30.81320000     -67.45850000
H      -44.65730000     -29.48220000     -67.83090000
C      -46.97450000     -33.62900000     -67.55250000
H      -47.41660000     -33.51050000     -66.55710000
H      -46.62930000     -34.63660000     -67.62040000
C      -42.07760000     -33.14580000     -69.00650000
H      -41.23210000     -32.88930000     -68.32120000
H      -42.15420000     -34.16220000     -69.13930000
S      -48.28990000     -33.20670000     -68.75300000
S      -41.67540000     -32.50530000     -70.69360000
C      -47.74310000     -34.04890000     -70.31110000
H      -47.44790000     -34.98760000     -69.90950000
H      -48.62310000     -34.34930000     -70.89470000
C      -43.21760000     -32.52970000     -71.66510000
H      -42.93440000     -31.93790000     -72.56820000
H      -44.07670000     -32.02580000     -71.14880000
C      -43.44980000     -34.11800000     -72.01930000
H      -42.50370000     -34.61900000     -72.06810000
H      -44.06300000     -34.66160000     -71.21680000
C      -46.80050000     -33.22190000     -71.17750000
H      -45.74170000     -33.27490000     -70.88090000
H      -47.16520000     -32.17240000     -71.18480000
C      -46.79890000     -33.60200000     -72.63330000
C      -47.97930000     -33.74310000     -73.34650000
C      -45.67590000     -34.08790000     -73.46340000
H      -48.98280000     -33.66850000     -72.84290000
C      -46.12060000     -34.52950000     -74.69660000
C      -44.25180000     -34.25840000     -73.29090000
C      -43.64390000     -34.73340000     -74.44570000
S      -47.83490000     -34.37980000     -74.98280000
S      -44.79130000     -34.84560000     -75.79970000
H      -42.63880000     -34.94290000     -74.53430000
