40
Properties=species:S:1:pos:R:3 #=T CELL(abcABC):=T 1.889726e+02=T 90.00000=T Traj:=T positionsangstrom=T Step:=T 0=T Bead:=T pbc="F F F"
C      -43.63970000     -36.35070000     -72.70500000
C      -43.38410000     -35.03080000     -73.27230000
C      -44.35630000     -34.47010000     -74.05990000
C      -45.64160000     -35.04380000     -74.27470000
C      -45.88820000     -36.25910000     -73.66160000
C      -44.87950000     -36.93440000     -72.95700000
H      -42.92950000     -36.91260000     -72.05930000
H      -44.26170000     -33.44210000     -74.40760000
H      -46.87230000     -36.73970000     -73.71860000
H      -45.05970000     -37.97940000     -72.59330000
C      -46.66390000     -34.35470000     -75.15050000
H      -47.68820000     -34.68960000     -74.97090000
H      -46.37470000     -34.44290000     -76.25120000
C      -42.12680000     -34.29060000     -73.10810000
H      -41.29000000     -34.78200000     -73.59460000
H      -42.16590000     -33.32150000     -73.61170000
S      -46.49370000     -32.48090000     -74.93380000
S      -41.45460000     -34.06540000     -71.34060000
C      -47.29110000     -32.27430000     -73.18910000
H      -47.60010000     -31.24220000     -73.21710000
H      -48.12290000     -33.03740000     -73.17310000
C      -43.06290000     -33.90950000     -70.44620000
H      -42.92310000     -34.59060000     -69.63780000
H      -43.74560000     -34.36200000     -71.10420000
C      -43.51630000     -32.34820000     -70.22750000
H      -42.60420000     -31.82040000     -69.96600000
H      -43.91890000     -32.03160000     -71.20890000
C      -46.25370000     -32.42450000     -71.96170000
H      -45.52740000     -31.63590000     -72.01950000
H      -45.79630000     -33.40040000     -72.04950000
C      -46.91280000     -32.32510000     -70.64870000
C      -48.24020000     -32.26310000     -70.33560000
C      -46.05330000     -32.29520000     -69.50610000
H      -48.96340000     -32.34440000     -71.05140000
C      -46.77220000     -32.16220000     -68.33010000
C      -44.59480000     -32.33260000     -69.21760000
C      -44.30610000     -32.38270000     -67.88640000
S      -48.51380000     -32.11730000     -68.59180000
S      -45.69500000     -32.13680000     -66.90910000
H      -43.32350000     -32.40080000     -67.52230000
