40
Properties=species:S:1:pos:R:3 #=T CELL(abcABC):=T 1.889726e+02=T 90.00000=T Traj:=T positionsangstrom=T Step:=T 0=T Bead:=T pbc="F F F"
C      -43.54160000     -31.04320000     -68.05800000
C      -43.45000000     -32.40340000     -68.40780000
C      -44.59570000     -33.20250000     -68.23250000
C      -45.85440000     -32.71160000     -67.85550000
C      -45.88210000     -31.35530000     -67.45310000
C      -44.79200000     -30.49180000     -67.60250000
H      -42.69100000     -30.42000000     -68.17040000
H      -44.52230000     -34.27450000     -68.42020000
H      -46.76770000     -30.86520000     -66.94380000
H      -44.84710000     -29.40970000     -67.39500000
C      -47.16250000     -33.47130000     -67.71350000
H      -47.66300000     -33.14480000     -66.79090000
H      -47.03490000     -34.59420000     -67.75160000
C      -42.24770000     -33.04340000     -69.00470000
H      -41.36490000     -32.76280000     -68.46330000
H      -42.24460000     -34.15170000     -69.14680000
S      -48.50680000     -33.07540000     -68.97440000
S      -41.60820000     -32.35920000     -70.68500000
C      -47.96500000     -34.01660000     -70.55360000
H      -47.58340000     -35.01060000     -70.27570000
H      -48.90690000     -34.18070000     -71.07130000
C      -43.06800000     -32.68380000     -71.82800000
H      -42.71620000     -32.57320000     -72.83140000
H      -43.91750000     -32.01580000     -71.70110000
C      -43.48030000     -34.10420000     -71.72720000
H      -42.54380000     -34.79410000     -71.84460000
H      -43.90090000     -34.29990000     -70.70560000
C      -46.86780000     -33.28450000     -71.29600000
H      -45.91530000     -33.47560000     -70.80180000
H      -46.95200000     -32.20580000     -71.30250000
C      -46.77920000     -33.67020000     -72.72240000
C      -47.87120000     -33.59230000     -73.56870000
C      -45.64530000     -34.20770000     -73.42510000
H      -48.74020000     -33.12830000     -73.20130000
C      -45.91940000     -34.53510000     -74.75720000
C      -44.28730000     -34.58200000     -73.01380000
C      -43.63600000     -35.12810000     -74.07930000
S      -47.58540000     -34.20320000     -75.20340000
S      -44.60450000     -35.27110000     -75.56320000
H      -42.56960000     -35.42260000     -74.14850000
