40
Properties=species:S:1:pos:R:3 #=T CELL(abcABC):=T 1.889726e+02=T 90.00000=T Traj:=T positionsangstrom=T Step:=T 0=T Bead:=T pbc="F F F"
C      -43.38730000     -31.07960000     -68.18400000
C      -43.33070000     -32.43660000     -68.57980000
C      -44.48690000     -33.30230000     -68.47230000
C      -45.71670000     -32.78080000     -67.94470000
C      -45.65870000     -31.46120000     -67.47460000
C      -44.60110000     -30.58650000     -67.64430000
H      -42.52770000     -30.49880000     -68.20030000
H      -44.40040000     -34.32550000     -68.87520000
H      -46.59740000     -31.05550000     -67.09870000
H      -44.59070000     -29.55360000     -67.28790000
C      -46.84370000     -33.70820000     -67.56980000
H      -47.19640000     -33.54650000     -66.53860000
H      -46.47510000     -34.69670000     -67.61390000
C      -42.07560000     -33.17800000     -69.19010000
H      -41.27700000     -33.17170000     -68.53160000
H      -42.39020000     -34.25280000     -69.25530000
S      -48.39200000     -33.57860000     -68.61790000
S      -41.41000000     -32.41980000     -70.72710000
C      -47.96710000     -34.37730000     -70.19740000
H      -47.41600000     -35.37680000     -70.13520000
H      -48.97050000     -34.50960000     -70.56470000
C      -42.89480000     -32.43070000     -71.93250000
H      -42.50650000     -32.05940000     -72.87310000
H      -43.63550000     -31.74900000     -71.55110000
C      -43.42700000     -33.86080000     -72.09180000
H      -42.54970000     -34.62150000     -72.01980000
H      -44.03520000     -34.13810000     -71.22160000
C      -47.14220000     -33.38040000     -71.06880000
H      -46.12520000     -33.22430000     -70.66200000
H      -47.55730000     -32.38070000     -71.16690000
C      -46.94140000     -33.77560000     -72.52370000
C      -48.09510000     -33.87280000     -73.27030000
C      -45.74000000     -34.08850000     -73.36100000
H      -49.01210000     -33.48730000     -72.89630000
C      -46.15850000     -34.26560000     -74.71090000
C      -44.26740000     -34.18900000     -73.27720000
C      -43.69350000     -34.54540000     -74.48590000
S      -47.94080000     -34.32440000     -74.98830000
S      -44.82550000     -34.64530000     -75.83450000
H      -42.59400000     -34.67800000     -74.58480000
