40
Properties=species:S:1:pos:R:3 #=T CELL(abcABC):=T 1.889726e+02=T 90.00000=T Traj:=T positionsangstrom=T Step:=T 0=T Bead:=T pbc="F F F"
C      -43.50720000     -31.08500000     -68.24570000
C      -43.45490000     -32.45330000     -68.46030000
C      -44.63680000     -33.21760000     -68.32870000
C      -45.80770000     -32.65480000     -67.78800000
C      -45.80360000     -31.30800000     -67.54860000
C      -44.73140000     -30.52240000     -67.86140000
H      -42.61660000     -30.48140000     -68.40860000
H      -44.61850000     -34.24770000     -68.65090000
H      -46.68390000     -30.87510000     -67.06410000
H      -44.83050000     -29.49040000     -67.63830000
C      -47.01060000     -33.51540000     -67.51680000
H      -47.32450000     -33.35360000     -66.50930000
H      -46.83720000     -34.64780000     -67.63230000
C      -42.22310000     -33.18390000     -68.98600000
H      -41.43930000     -33.11540000     -68.14480000
H      -42.39120000     -34.24760000     -68.95290000
S      -48.31440000     -33.09280000     -68.76500000
S      -41.70900000     -32.38850000     -70.56780000
C      -47.81530000     -33.99290000     -70.36390000
H      -47.40600000     -34.95280000     -70.06740000
H      -48.79640000     -34.09590000     -70.89680000
C      -43.16890000     -32.66560000     -71.61450000
H      -43.02100000     -32.13800000     -72.55940000
H      -44.01980000     -32.21720000     -71.07030000
C      -43.42570000     -34.20020000     -71.92490000
H      -42.52380000     -34.76480000     -71.94630000
H      -43.98340000     -34.61630000     -71.08650000
C      -46.79710000     -33.24230000     -71.27860000
H      -45.82500000     -33.22340000     -70.79280000
H      -47.21770000     -32.22530000     -71.25550000
C      -46.77150000     -33.71850000     -72.68900000
C      -47.91260000     -33.73380000     -73.48160000
C      -45.66400000     -34.14080000     -73.52370000
H      -48.83040000     -33.43800000     -73.02040000
C      -46.03090000     -34.60440000     -74.78180000
C      -44.24240000     -34.38860000     -73.24620000
C      -43.59520000     -34.86020000     -74.37100000
S      -47.74040000     -34.22660000     -75.12570000
S      -44.70580000     -35.19850000     -75.72470000
H      -42.59640000     -35.15000000     -74.51630000
