40
Properties=species:S:1:pos:R:3 #=T CELL(abcABC):=T 1.889726e+02=T 90.00000=T Traj:=T positionsangstrom=T Step:=T 0=T Bead:=T pbc="F F F"
C      -44.19610000     -30.97950000     -68.27370000
C      -43.99340000     -32.38630000     -68.27160000
C      -45.06280000     -33.26540000     -68.11440000
C      -46.38540000     -32.72330000     -68.20220000
C      -46.57320000     -31.36700000     -68.30110000
C      -45.48220000     -30.44020000     -68.37350000
H      -43.38040000     -30.21060000     -68.30010000
H      -44.81400000     -34.30870000     -68.16600000
H      -47.60880000     -31.05550000     -68.39020000
H      -45.72260000     -29.44830000     -68.42200000
C      -47.64080000     -33.55900000     -68.18290000
H      -48.19770000     -33.38010000     -67.24100000
H      -47.35530000     -34.71460000     -68.22040000
C      -42.57840000     -33.00550000     -68.27250000
H      -41.88270000     -32.53300000     -67.49500000
H      -42.58530000     -34.05720000     -68.18600000
S      -48.89170000     -33.32820000     -69.61130000
S      -41.80010000     -32.49880000     -69.94350000
C      -47.86820000     -33.68400000     -71.10870000
H      -47.41470000     -34.66190000     -70.83030000
H      -48.56370000     -33.86940000     -71.91650000
C      -43.15090000     -32.69850000     -71.14160000
H      -42.68650000     -32.55270000     -72.10840000
H      -43.96580000     -31.95880000     -71.04900000
C      -43.70360000     -34.12180000     -71.22340000
H      -43.07240000     -34.82540000     -70.69630000
H      -44.62840000     -34.22720000     -70.60960000
C      -46.92630000     -32.70400000     -71.66040000
H      -46.07750000     -32.46430000     -71.05050000
H      -47.45470000     -31.71480000     -71.81250000
C      -46.37820000     -33.22330000     -72.97660000
C      -47.21020000     -32.99640000     -74.11610000
C      -45.27370000     -34.13010000     -73.31810000
H      -48.11960000     -32.45140000     -74.21860000
C      -45.32340000     -34.66120000     -74.57980000
C      -44.09260000     -34.58750000     -72.62250000
C      -43.35460000     -35.47130000     -73.37210000
S      -46.65970000     -34.02110000     -75.56610000
S      -43.98890000     -35.70600000     -74.97510000
H      -42.42730000     -35.91890000     -73.07940000
