40
Properties=species:S:1:pos:R:3 #=T CELL(abcABC):=T 1.889726e+02=T 90.00000=T Traj:=T positionsangstrom=T Step:=T 0=T Bead:=T pbc="F F F"
C      -44.89910000     -33.27320000     -68.03070000
C      -45.02830000     -34.64800000     -68.49690000
C      -46.30140000     -35.19460000     -68.85180000
C      -47.37120000     -34.31490000     -68.67520000
C      -47.30180000     -33.03640000     -68.11200000
C      -46.06410000     -32.49750000     -67.78340000
H      -43.97410000     -32.82330000     -67.78880000
H      -46.45950000     -36.21690000     -69.19480000
H      -48.18430000     -32.34120000     -67.99580000
H      -45.95860000     -31.52420000     -67.30560000
C      -48.77370000     -34.70040000     -69.14030000
H      -49.53700000     -33.96790000     -68.88610000
H      -49.08630000     -35.71790000     -68.80130000
C      -43.81430000     -35.57390000     -68.58880000
H      -42.94220000     -35.00760000     -68.47720000
H      -43.66470000     -36.29260000     -67.80750000
S      -48.85540000     -34.90570000     -71.06470000
S      -43.68090000     -36.28890000     -70.32920000
C      -48.15580000     -33.37670000     -71.81560000
H      -48.64490000     -33.00070000     -72.68140000
H      -48.14930000     -32.61520000     -71.03950000
C      -43.13640000     -34.82610000     -71.20690000
H      -42.05710000     -34.66570000     -71.05900000
H      -43.65820000     -33.99590000     -70.68990000
C      -43.49940000     -34.82140000     -72.68460000
H      -42.73370000     -35.30950000     -73.22810000
H      -44.40820000     -35.32570000     -72.90820000
C      -46.62590000     -33.57510000     -72.09390000
H      -46.48050000     -34.40110000     -72.78170000
H      -46.18500000     -33.92790000     -71.11180000
C      -45.85610000     -32.37530000     -72.62510000
C      -46.42000000     -31.12860000     -72.69060000
C      -44.49910000     -32.37630000     -73.07440000
H      -47.40710000     -30.77130000     -72.36090000
C      -43.99850000     -31.13640000     -73.44440000
C      -43.46870000     -33.39860000     -73.23940000
C      -42.32860000     -32.93520000     -73.87930000
S      -45.32340000     -29.95320000     -73.40310000
S      -42.44410000     -31.17890000     -74.22540000
H      -41.42200000     -33.51280000     -74.15910000
