40
Properties=species:S:1:pos:R:3 #=T CELL(abcABC):=T 1.889726e+02=T 90.00000=T Traj:=T positionsangstrom=T Step:=T 0=T Bead:=T pbc="F F F"
C      -44.89870000     -33.50060000     -68.09180000
C      -45.00440000     -34.84040000     -68.49230000
C      -46.25410000     -35.30560000     -68.96220000
C      -47.33440000     -34.41800000     -68.91380000
C      -47.22850000     -33.11310000     -68.40800000
C      -45.95730000     -32.60340000     -68.12600000
H      -43.97110000     -33.05810000     -67.74930000
H      -46.50620000     -36.28140000     -69.37390000
H      -48.12100000     -32.45910000     -68.58620000
H      -45.91160000     -31.62520000     -67.67820000
C      -48.64240000     -34.85410000     -69.39540000
H      -49.46990000     -34.49440000     -68.65220000
H      -48.63200000     -35.90700000     -69.44800000
C      -43.85770000     -35.76420000     -68.46870000
H      -42.97940000     -35.40050000     -67.88800000
H      -43.94160000     -36.78580000     -68.02420000
S      -49.32020000     -34.26870000     -71.01910000
S      -43.31700000     -36.17230000     -70.21010000
C      -48.24090000     -33.00140000     -71.64160000
H      -48.76860000     -32.63080000     -72.52130000
H      -48.08610000     -32.23270000     -70.85160000
C      -43.18410000     -34.61060000     -71.17820000
H      -42.14910000     -34.33140000     -71.14320000
H      -43.79990000     -33.75920000     -70.79460000
C      -43.61870000     -34.92540000     -72.64520000
H      -42.91120000     -35.62130000     -73.22630000
H      -44.66750000     -35.36470000     -72.55400000
C      -46.80300000     -33.47040000     -72.14070000
H      -46.96750000     -34.16700000     -72.96360000
H      -46.28170000     -34.09890000     -71.44140000
C      -45.94670000     -32.37640000     -72.57920000
C      -46.26600000     -31.02940000     -72.54620000
C      -44.54030000     -32.49250000     -73.08080000
H      -47.22650000     -30.66340000     -72.25450000
C      -44.03480000     -31.32710000     -73.57080000
C      -43.56590000     -33.55760000     -73.27370000
C      -42.45120000     -33.19440000     -73.97430000
S      -45.06870000     -29.94270000     -73.14850000
S      -42.45810000     -31.45210000     -74.21760000
H      -41.60120000     -33.89980000     -74.12670000
