40
Properties=species:S:1:pos:R:3 #=T CELL(abcABC):=T 1.889726e+02=T 90.00000=T Traj:=T positionsangstrom=T Step:=T 0=T Bead:=T pbc="F F F"
C      -43.56930000     -36.25350000     -72.77540000
C      -43.34360000     -35.02850000     -73.36470000
C      -44.32010000     -34.39470000     -74.14220000
C      -45.58060000     -34.97710000     -74.27180000
C      -45.75860000     -36.28770000     -73.85250000
C      -44.79240000     -36.86720000     -72.99350000
H      -42.75980000     -36.77540000     -72.25300000
H      -44.04830000     -33.42950000     -74.61740000
H      -46.74290000     -36.78020000     -74.06040000
H      -44.96450000     -37.80230000     -72.55770000
C      -46.62370000     -34.27220000     -75.13480000
H      -47.65530000     -34.66750000     -74.82060000
H      -46.45600000     -34.24910000     -76.16770000
C      -42.03480000     -34.29070000     -73.13280000
H      -41.23800000     -34.73520000     -73.70010000
H      -42.18870000     -33.25390000     -73.59230000
S      -46.65710000     -32.45630000     -74.81490000
S      -41.48550000     -34.17020000     -71.40350000
C      -47.40890000     -32.32500000     -73.18220000
H      -48.06890000     -31.43480000     -73.21240000
H      -48.12630000     -33.08570000     -73.00020000
C      -43.03590000     -34.03860000     -70.35150000
H      -42.80970000     -34.20320000     -69.24610000
H      -43.78940000     -34.74230000     -70.74110000
C      -43.46240000     -32.43280000     -70.22190000
H      -42.65250000     -31.82620000     -69.90160000
H      -43.75550000     -32.03510000     -71.14940000
C      -46.31170000     -32.31710000     -71.99530000
H      -45.57240000     -31.47310000     -72.19710000
H      -45.68410000     -33.23320000     -72.04700000
C      -46.83740000     -32.27640000     -70.61430000
C      -48.17160000     -32.30850000     -70.34630000
C      -45.98470000     -32.20350000     -69.45600000
H      -48.99900000     -32.10760000     -70.97480000
C      -46.77640000     -32.23460000     -68.32330000
C      -44.54980000     -32.25670000     -69.13960000
C      -44.31060000     -32.13470000     -67.78730000
S      -48.45990000     -32.27410000     -68.63310000
S      -45.83010000     -32.14480000     -66.88910000
H      -43.36700000     -32.12930000     -67.26890000
