40
Properties=species:S:1:pos:R:3 #=T CELL(abcABC):=T 1.889726e+02=T 90.00000=T Traj:=T positionsangstrom=T Step:=T 0=T Bead:=T pbc="F F F"
C      -44.54480000     -30.79710000     -68.77510000
C      -44.30980000     -32.14360000     -68.38560000
C      -45.38010000     -33.02060000     -68.17570000
C      -46.70850000     -32.50640000     -68.29090000
C      -46.91790000     -31.20370000     -68.72720000
C      -45.84630000     -30.33980000     -68.90310000
H      -43.76640000     -30.08190000     -68.79820000
H      -45.20310000     -33.86410000     -67.58130000
H      -47.92090000     -30.87480000     -68.77890000
H      -46.06620000     -29.34470000     -69.16050000
C      -47.89960000     -33.39890000     -68.04180000
H      -48.52860000     -32.87350000     -67.33570000
H      -47.64870000     -34.29460000     -67.57190000
C      -42.96580000     -32.70700000     -68.09380000
H      -42.49190000     -32.20660000     -67.25340000
H      -43.12980000     -33.77870000     -67.71510000
S      -48.83090000     -33.79110000     -69.57330000
S      -41.73860000     -32.62540000     -69.51030000
C      -47.51560000     -34.12030000     -70.93900000
H      -46.61700000     -34.63000000     -70.54290000
H      -48.06550000     -34.67240000     -71.61310000
C      -42.98270000     -32.86400000     -70.95790000
H      -42.42980000     -32.81880000     -71.87000000
H      -43.66050000     -31.98570000     -70.89190000
C      -43.89850000     -34.14150000     -71.00200000
H      -43.34110000     -34.93780000     -70.52940000
H      -44.85580000     -34.12590000     -70.41600000
C      -47.01690000     -32.92490000     -71.76510000
H      -46.40080000     -32.26930000     -71.13400000
H      -47.95040000     -32.32160000     -72.07400000
C      -46.51550000     -33.53080000     -73.08890000
C      -47.25280000     -33.46450000     -74.28240000
C      -45.27210000     -34.25600000     -73.30270000
H      -48.16960000     -32.85370000     -74.25850000
C      -45.10270000     -34.63300000     -74.68430000
C      -44.06210000     -34.56920000     -72.49390000
C      -43.06280000     -35.05890000     -73.25180000
S      -46.40250000     -34.02290000     -75.68650000
S      -43.52390000     -35.26900000     -74.97050000
H      -42.02950000     -35.37070000     -73.06190000
