40
Properties=species:S:1:pos:R:3 #=T CELL(abcABC):=T 1.889726e+02=T 90.00000=T Traj:=T positionsangstrom=T Step:=T 0=T Bead:=T pbc="F F F"
C      -43.46070000     -36.26550000     -72.99020000
C      -43.24280000     -34.96810000     -73.45500000
C      -44.27160000     -34.25290000     -74.12280000
C      -45.52170000     -34.82390000     -74.37490000
C      -45.70150000     -36.15930000     -73.93590000
C      -44.72790000     -36.85160000     -73.16640000
H      -42.74720000     -36.63860000     -72.29130000
H      -44.08840000     -33.24080000     -74.37900000
H      -46.69880000     -36.56570000     -74.09920000
H      -44.93060000     -37.79210000     -72.72990000
C      -46.63740000     -34.24800000     -75.15180000
H      -47.57130000     -34.89890000     -75.11010000
H      -46.43150000     -34.46760000     -76.23530000
C      -41.98990000     -34.25200000     -73.10980000
H      -41.09020000     -34.63100000     -73.57580000
H      -42.12520000     -33.19080000     -73.33240000
S      -46.96350000     -32.47290000     -74.94990000
S      -41.48730000     -34.29040000     -71.27650000
C      -47.47440000     -32.49120000     -73.08590000
H      -48.13040000     -31.60480000     -72.95000000
H      -48.04030000     -33.43480000     -73.02650000
C      -42.99280000     -33.83650000     -70.25600000
H      -42.86470000     -34.42300000     -69.32740000
H      -43.88310000     -34.24260000     -70.75140000
C      -43.39410000     -32.36740000     -70.10470000
H      -42.44520000     -31.81320000     -69.80240000
H      -43.67440000     -31.87900000     -71.06990000
C      -46.29010000     -32.45420000     -72.05770000
H      -45.59280000     -31.63090000     -72.22190000
H      -45.61750000     -33.30650000     -72.10670000
C      -46.79480000     -32.43820000     -70.62860000
C      -48.11480000     -32.48970000     -70.28950000
C      -45.95030000     -32.30420000     -69.44390000
H      -49.04590000     -32.50910000     -70.90110000
C      -46.75540000     -32.22790000     -68.32070000
C      -44.53680000     -32.19780000     -69.09680000
C      -44.29370000     -32.07150000     -67.76040000
S      -48.47230000     -32.32340000     -68.58300000
S      -45.79810000     -32.02180000     -66.84310000
H      -43.32450000     -32.06290000     -67.23230000
