40
Properties=species:S:1:pos:R:3 #=T CELL(abcABC):=T 1.889726e+02=T 90.00000=T Traj:=T positionsangstrom=T Step:=T 0=T Bead:=T pbc="F F F"
C      -45.23000000     -33.79770000     -67.53150000
C      -45.35670000     -34.94970000     -68.36240000
C      -46.54750000     -35.27360000     -69.03910000
C      -47.62650000     -34.41120000     -68.88720000
C      -47.53090000     -33.22620000     -68.07770000
C      -46.31820000     -32.93330000     -67.39480000
H      -44.35690000     -33.53890000     -66.95060000
H      -46.76050000     -36.15050000     -69.61680000
H      -48.44640000     -32.64820000     -67.90290000
H      -46.27520000     -32.06760000     -66.75760000
C      -48.99750000     -34.62690000     -69.58480000
H      -49.85920000     -34.26560000     -69.04430000
H      -49.14570000     -35.67080000     -69.92140000
C      -44.15360000     -35.83200000     -68.45330000
H      -43.18030000     -35.46220000     -68.13350000
H      -44.27590000     -36.85280000     -67.90010000
S      -49.20140000     -33.83260000     -71.23370000
S      -43.91920000     -36.54720000     -70.24680000
C      -47.96290000     -32.54420000     -71.65150000
H      -48.25460000     -32.27440000     -72.68860000
H      -48.10950000     -31.74660000     -70.94800000
C      -43.19980000     -35.13150000     -71.10980000
H      -42.10190000     -35.20750000     -71.12280000
H      -43.33960000     -34.15200000     -70.60730000
C      -43.81910000     -35.04440000     -72.55830000
H      -43.53150000     -35.75980000     -73.37730000
H      -44.85290000     -35.24520000     -72.48970000
C      -46.45210000     -32.96150000     -71.63200000
H      -46.37570000     -33.95250000     -71.99930000
H      -46.13560000     -33.01130000     -70.54610000
C      -45.56740000     -31.96740000     -72.40970000
C      -45.79030000     -30.58540000     -72.53630000
C      -44.33140000     -32.42170000     -73.04700000
H      -46.64890000     -30.02180000     -72.19440000
C      -43.74710000     -31.37800000     -73.83400000
C      -43.55980000     -33.68460000     -73.21060000
C      -42.39610000     -33.41210000     -73.94970000
S      -44.54050000     -29.80630000     -73.54490000
S      -42.17340000     -31.74250000     -74.49020000
H      -41.79060000     -34.22270000     -74.25080000
