40
Properties=species:S:1:pos:R:3 #=T CELL(abcABC):=T 1.889726e+02=T 90.00000=T Traj:=T positionsangstrom=T Step:=T 0=T Bead:=T pbc="F F F"
C      -45.77960000     -34.44310000     -67.14650000
C      -45.97080000     -35.18410000     -68.31370000
C      -46.99820000     -34.74950000     -69.15140000
C      -47.74150000     -33.56540000     -68.83200000
C      -47.48680000     -32.89420000     -67.65480000
C      -46.54460000     -33.36730000     -66.76380000
H      -45.02470000     -34.80940000     -66.41570000
H      -47.21470000     -35.38200000     -69.98140000
H      -48.16890000     -32.09130000     -67.38860000
H      -46.22020000     -32.77820000     -65.94570000
C      -48.99080000     -33.18920000     -69.61920000
H      -49.40700000     -32.21610000     -69.40860000
H      -49.85840000     -33.80430000     -69.16620000
C      -45.14800000     -36.40590000     -68.65510000
H      -44.11250000     -36.20340000     -68.27570000
H      -45.43670000     -37.32610000     -68.21320000
S      -48.90940000     -33.52820000     -71.40350000
S      -44.93260000     -36.61540000     -70.50770000
C      -47.68310000     -32.32770000     -72.06930000
H      -47.87360000     -32.07950000     -73.10120000
H      -47.77860000     -31.34500000     -71.58980000
C      -43.93220000     -35.13580000     -70.97910000
H      -42.88530000     -35.20320000     -70.54220000
H      -44.51400000     -34.26750000     -70.56000000
C      -43.85200000     -35.06920000     -72.50010000
H      -43.30930000     -35.85930000     -72.96210000
H      -44.91040000     -35.11990000     -72.97570000
C      -46.22000000     -32.87610000     -71.96250000
H      -46.29270000     -33.90910000     -72.49140000
H      -46.10620000     -32.98030000     -70.85280000
C      -45.18280000     -31.97340000     -72.49850000
C      -45.34630000     -30.66680000     -72.72440000
C      -43.86810000     -32.52170000     -72.97750000
H      -46.23650000     -30.05320000     -72.48520000
C      -43.23890000     -31.57860000     -73.70490000
C      -43.17760000     -33.78080000     -72.99530000
C      -41.90120000     -33.71920000     -73.63070000
S      -44.04430000     -29.96190000     -73.67650000
S      -41.67350000     -32.17070000     -74.34900000
H      -41.16180000     -34.50560000     -73.69940000
