40
Properties=species:S:1:pos:R:3 #=T CELL(abcABC):=T 1.889726e+02=T 90.00000=T Traj:=T positionsangstrom=T Step:=T 0=T Bead:=T pbc="F F F"
C      -43.41990000     -36.18110000     -73.02270000
C      -43.30650000     -34.79370000     -73.42790000
C      -44.34120000     -34.14330000     -74.00220000
C      -45.43870000     -34.91380000     -74.48050000
C      -45.57900000     -36.24040000     -74.10140000
C      -44.56280000     -36.89210000     -73.36240000
H      -42.53100000     -36.57610000     -72.62390000
H      -44.34220000     -33.11170000     -74.15460000
H      -46.40810000     -36.77150000     -74.46530000
H      -44.67250000     -37.94790000     -73.15860000
C      -46.40690000     -34.18720000     -75.42900000
H      -47.19500000     -34.77200000     -75.77270000
H      -45.66890000     -33.91350000     -76.27510000
C      -42.03600000     -34.03910000     -72.96990000
H      -41.13900000     -34.36350000     -73.53030000
H      -42.07170000     -32.96270000     -73.18790000
S      -47.04300000     -32.49840000     -74.77200000
S      -41.54080000     -34.25720000     -71.11610000
C      -47.52800000     -32.72360000     -73.04030000
H      -48.21560000     -31.91920000     -72.76050000
H      -47.99890000     -33.71180000     -72.96070000
C      -43.15470000     -33.84100000     -70.33360000
H      -43.17860000     -34.47940000     -69.41390000
H      -43.93020000     -34.26850000     -70.98960000
C      -43.36160000     -32.40290000     -70.09820000
H      -42.48130000     -31.96520000     -69.61650000
H      -43.44790000     -31.99560000     -71.08940000
C      -46.36920000     -32.63160000     -72.04430000
H      -45.75900000     -31.76550000     -72.32150000
H      -45.75110000     -33.52390000     -72.25680000
C      -46.83130000     -32.53860000     -70.64320000
C      -48.12930000     -32.64080000     -70.29750000
C      -45.95260000     -32.31620000     -69.46610000
H      -48.88890000     -33.05970000     -71.01170000
C      -46.75390000     -32.11340000     -68.31730000
C      -44.53250000     -32.20000000     -69.15230000
C      -44.28650000     -32.01560000     -67.79340000
S      -48.47110000     -32.38810000     -68.56570000
S      -45.76680000     -31.90560000     -66.90730000
H      -43.32620000     -31.74250000     -67.30250000
