40
Properties=species:S:1:pos:R:3 #=T CELL(abcABC):=T 1.889726e+02=T 90.00000=T Traj:=T positionsangstrom=T Step:=T 0=T Bead:=T pbc="F F F"
C      -45.50750000     -35.14820000     -68.13970000
C      -46.50370000     -35.47590000     -69.09480000
C      -47.47920000     -34.56260000     -69.53940000
C      -47.44020000     -33.27950000     -68.97720000
C      -46.46930000     -32.96100000     -68.00900000
C      -45.46250000     -33.80550000     -67.64990000
H      -44.71910000     -35.89540000     -67.90220000
H      -48.28020000     -34.73770000     -70.17760000
H      -46.38860000     -31.85720000     -67.62920000
H      -44.88010000     -33.42140000     -66.86800000
C      -48.53250000     -32.26360000     -69.35930000
H      -48.29270000     -31.24460000     -68.87140000
H      -49.43880000     -32.61170000     -68.91760000
C      -46.48190000     -36.85730000     -69.70970000
H      -45.63710000     -37.33050000     -69.26560000
H      -47.29340000     -37.44580000     -69.40390000
S      -48.84570000     -31.95330000     -71.16560000
S      -46.42040000     -36.76790000     -71.57070000
C      -47.36620000     -31.04350000     -71.68670000
H      -47.58360000     -30.20570000     -72.37740000
H      -46.92080000     -30.73010000     -70.72380000
C      -44.85500000     -36.04800000     -72.10930000
H      -44.11080000     -36.74970000     -72.30680000
H      -44.46510000     -35.53470000     -71.25650000
C      -44.95280000     -35.01630000     -73.23150000
H      -44.83350000     -35.60700000     -74.18580000
H      -45.92440000     -34.60620000     -73.33300000
C      -46.38460000     -32.00740000     -72.45480000
H      -46.76350000     -32.06780000     -73.50310000
H      -46.42390000     -33.04440000     -72.07960000
C      -44.90610000     -31.65170000     -72.44670000
C      -44.45730000     -30.39900000     -72.15440000
C      -43.87200000     -32.66610000     -72.66160000
H      -45.02460000     -29.48910000     -71.89330000
C      -42.64470000     -32.05730000     -72.71260000
C      -43.77680000     -34.04270000     -73.12210000
C      -42.49560000     -34.47760000     -73.38410000
S      -42.68680000     -30.36700000     -72.22800000
S      -41.32630000     -33.12930000     -73.11690000
H      -42.19520000     -35.46590000     -73.57490000
