40
Properties=species:S:1:pos:R:3 #=T CELL(abcABC):=T 1.889726e+02=T 90.00000=T Traj:=T positionsangstrom=T Step:=T 0=T Bead:=T pbc="F F F"
C      -45.29720000     -34.39400000     -68.06430000
C      -46.25810000     -35.21100000     -68.72770000
C      -47.49220000     -34.66820000     -69.11080000
C      -47.69810000     -33.28610000     -68.96730000
C      -46.76800000     -32.53050000     -68.20940000
C      -45.58110000     -33.09070000     -67.74880000
H      -44.47230000     -34.77080000     -67.56680000
H      -48.10210000     -35.28980000     -69.77640000
H      -46.95670000     -31.40810000     -67.88100000
H      -44.72630000     -32.53850000     -67.34010000
C      -48.92320000     -32.62480000     -69.56100000
H      -49.04850000     -31.62970000     -69.19180000
H      -49.92110000     -33.01360000     -69.19530000
C      -45.93340000     -36.64420000     -68.94670000
H      -45.02770000     -37.00110000     -68.35760000
H      -46.80830000     -37.24430000     -68.71180000
S      -49.09430000     -32.69130000     -71.43420000
S      -45.70420000     -37.05160000     -70.74040000
C      -47.61950000     -31.72510000     -71.90680000
H      -47.82630000     -31.50650000     -72.99330000
H      -47.60250000     -30.79500000     -71.37930000
C      -44.48690000     -35.68370000     -71.06770000
H      -43.48890000     -35.96650000     -70.63110000
H      -44.65870000     -34.90570000     -70.35480000
C      -44.31650000     -35.23730000     -72.59170000
H      -43.92890000     -36.14220000     -73.05110000
H      -45.36860000     -35.13220000     -72.93960000
C      -46.26630000     -32.42950000     -71.66690000
H      -46.32000000     -33.49400000     -71.75670000
H      -46.14660000     -32.44790000     -70.59550000
C      -45.04710000     -31.92210000     -72.43310000
C      -44.88820000     -30.59070000     -72.65230000
C      -43.89860000     -32.68380000     -72.83190000
H      -45.71600000     -29.88990000     -72.58880000
C      -42.89220000     -31.85480000     -73.31140000
C      -43.47060000     -34.09330000     -72.85810000
C      -42.19910000     -34.19500000     -73.37670000
S      -43.32190000     -30.14910000     -73.33240000
S      -41.40680000     -32.65460000     -73.67590000
H      -41.74060000     -35.10560000     -73.63090000
