40
Properties=species:S:1:pos:R:3 #=T CELL(abcABC):=T 1.889726e+02=T 90.00000=T Traj:=T positionsangstrom=T Step:=T 0=T Bead:=T pbc="F F F"
C      -45.56190000     -34.57560000     -67.39260000
C      -46.11360000     -35.33860000     -68.47140000
C      -47.09270000     -34.73570000     -69.24740000
C      -47.61400000     -33.46690000     -68.88590000
C      -47.07360000     -32.78150000     -67.73030000
C      -45.98210000     -33.30980000     -67.06380000
H      -44.83030000     -34.99600000     -66.71620000
H      -47.51590000     -35.20700000     -70.11020000
H      -47.56970000     -31.91590000     -67.39250000
H      -45.46850000     -32.63680000     -66.42420000
C      -48.77050000     -32.76100000     -69.59970000
H      -48.75980000     -31.72250000     -69.50330000
H      -49.72220000     -33.13480000     -69.18340000
C      -45.65220000     -36.76440000     -68.77330000
H      -44.76310000     -37.07060000     -68.11550000
H      -46.38710000     -37.51170000     -68.66160000
S      -48.97300000     -33.21160000     -71.43630000
S      -45.07380000     -36.82730000     -70.49870000
C      -47.69350000     -32.21810000     -72.30160000
H      -47.72850000     -32.49590000     -73.35710000
H      -48.02990000     -31.14800000     -72.24220000
C      -44.23220000     -35.28740000     -70.89940000
H      -43.16930000     -35.36920000     -70.55950000
H      -44.69940000     -34.40780000     -70.49080000
C      -44.19890000     -35.10660000     -72.43110000
H      -43.69200000     -36.00210000     -72.76280000
H      -45.24050000     -35.24930000     -72.77550000
C      -46.34010000     -32.49520000     -71.72950000
H      -46.12460000     -33.53720000     -71.71590000
H      -46.33400000     -31.92640000     -70.73820000
C      -45.23670000     -31.84770000     -72.64740000
C      -45.24670000     -30.50980000     -72.97430000
C      -44.01050000     -32.51840000     -73.05730000
H      -45.90980000     -29.73780000     -72.67360000
C      -43.03170000     -31.59030000     -73.60840000
C      -43.51910000     -33.87910000     -72.88210000
C      -42.18970000     -33.97920000     -73.30500000
S      -43.66410000     -29.95340000     -73.70570000
S      -41.63380000     -32.42390000     -73.96950000
H      -41.48510000     -34.77370000     -73.22500000
