40
Properties=species:S:1:pos:R:3 #=T CELL(abcABC):=T 1.889726e+02=T 90.00000=T Traj:=T positionsangstrom=T Step:=T 0=T Bead:=T pbc="F F F"
C      -44.00090000     -37.05210000     -73.34200000
C      -43.90650000     -35.65140000     -73.54340000
C      -43.21210000     -34.87260000     -72.64490000
C      -42.51980000     -35.45490000     -71.58850000
C      -42.63580000     -36.83950000     -71.32790000
C      -43.33810000     -37.60340000     -72.22230000
H      -44.54730000     -37.75140000     -73.93250000
H      -43.16010000     -33.81570000     -72.81110000
H      -42.20080000     -37.35880000     -70.46550000
H      -43.44230000     -38.67710000     -72.13470000
C      -41.66180000     -34.57920000     -70.71090000
H      -41.46730000     -33.60280000     -71.22180000
H      -40.75800000     -35.14760000     -70.44330000
C      -44.52770000     -35.00330000     -74.80190000
H      -43.74000000     -34.18870000     -74.99440000
H      -44.38350000     -35.69510000     -75.60560000
S      -42.41270000     -34.20230000     -69.03640000
S      -46.30700000     -34.56570000     -74.79250000
C      -44.08450000     -33.50770000     -69.50810000
H      -44.67940000     -34.43240000     -69.76320000
H      -44.35640000     -33.19520000     -68.48830000
C      -46.46950000     -33.25330000     -73.45310000
H      -47.30970000     -32.62030000     -73.68120000
H      -45.56280000     -32.60680000     -73.34880000
C      -46.72630000     -33.92100000     -72.07750000
H      -47.45890000     -34.76630000     -72.18540000
H      -45.82300000     -34.54090000     -71.76720000
C      -44.07440000     -32.29200000     -70.47580000
H      -44.04270000     -32.61030000     -71.54080000
H      -43.17470000     -31.74950000     -70.30610000
C      -45.26980000     -31.40960000     -70.27130000
C      -45.14810000     -30.23680000     -69.52720000
C      -46.65190000     -31.75320000     -70.54760000
H      -44.22890000     -30.00970000     -68.93610000
C      -47.54340000     -30.84210000     -69.93450000
C      -47.30480000     -32.88530000     -71.20020000
C      -48.68020000     -32.79400000     -71.05510000
S      -46.72210000     -29.55960000     -69.02130000
S      -49.19310000     -31.31650000     -70.22880000
H      -49.45520000     -33.40340000     -71.30180000
