40
Properties=species:S:1:pos:R:3 #=T CELL(abcABC):=T 1.889726e+02=T 90.00000=T Traj:=T positionsangstrom=T Step:=T 0=T Bead:=T pbc="F F F"
C      -44.58660000     -36.66780000     -73.43010000
C      -44.13890000     -35.36570000     -73.62640000
C      -43.17620000     -34.78530000     -72.73380000
C      -42.59080000     -35.53690000     -71.72510000
C      -42.89330000     -36.89430000     -71.66980000
C      -43.86100000     -37.50290000     -72.53150000
H      -45.35980000     -37.18270000     -74.01460000
H      -42.86340000     -33.78610000     -72.93680000
H      -42.50310000     -37.48200000     -70.89750000
H      -44.07320000     -38.55070000     -72.38400000
C      -41.65450000     -34.91230000     -70.73390000
H      -41.35010000     -33.87370000     -71.05930000
H      -40.68440000     -35.36660000     -70.53430000
C      -44.66550000     -34.51640000     -74.81530000
H      -44.32260000     -33.44490000     -74.68030000
H      -44.08170000     -34.87780000     -75.64110000
S      -42.38650000     -34.69740000     -69.07110000
S      -46.48860000     -34.57050000     -75.17700000
C      -44.01700000     -34.06390000     -69.49580000
H      -44.44150000     -34.64470000     -70.21420000
H      -44.49560000     -34.05970000     -68.53650000
C      -47.18400000     -33.50460000     -73.81560000
H      -48.29750000     -33.75580000     -73.68880000
H      -47.12850000     -32.44370000     -74.08550000
C      -46.55830000     -33.58790000     -72.37670000
H      -46.67820000     -34.53340000     -71.81620000
H      -45.47960000     -33.45210000     -72.44360000
C      -43.94000000     -32.61540000     -70.03910000
H      -43.72760000     -32.82490000     -71.09350000
H      -43.07060000     -32.22260000     -69.69670000
C      -45.10450000     -31.77390000     -69.71230000
C      -44.93800000     -30.84720000     -68.68700000
C      -46.45900000     -31.76680000     -70.26830000
H      -44.16460000     -30.88130000     -67.93040000
C      -47.28820000     -30.81790000     -69.70460000
C      -47.13130000     -32.43990000     -71.42810000
C      -48.42210000     -31.93590000     -71.50690000
S      -46.47290000     -29.86030000     -68.42490000
S      -48.90470000     -30.69320000     -70.34520000
H      -49.05250000     -32.11030000     -72.39500000
