40
Properties=species:S:1:pos:R:3 #=T CELL(abcABC):=T 1.889726e+02=T 90.00000=T Traj:=T positionsangstrom=T Step:=T 0=T Bead:=T pbc="F F F"
C      -44.04540000     -37.05040000     -73.40910000
C      -43.89400000     -35.64790000     -73.67130000
C      -43.09040000     -34.87010000     -72.83380000
C      -42.51760000     -35.44960000     -71.64750000
C      -42.81480000     -36.80750000     -71.35900000
C      -43.54000000     -37.58720000     -72.23150000
H      -44.57260000     -37.67740000     -74.06830000
H      -42.90620000     -33.86500000     -72.98990000
H      -42.33870000     -37.24960000     -70.45290000
H      -43.82180000     -38.62030000     -72.04470000
C      -41.67190000     -34.64230000     -70.68530000
H      -41.48810000     -33.68400000     -71.15990000
H      -40.68150000     -35.14500000     -70.47690000
C      -44.41390000     -34.98050000     -74.92670000
H      -43.91500000     -34.05320000     -75.04660000
H      -44.37920000     -35.56750000     -75.91830000
S      -42.48320000     -34.28470000     -69.04940000
S      -46.30100000     -34.64800000     -74.84200000
C      -44.10410000     -33.67530000     -69.55720000
H      -44.68440000     -34.42780000     -70.10850000
H      -44.73900000     -33.59560000     -68.67520000
C      -46.80600000     -33.38120000     -73.70790000
H      -47.79540000     -33.14700000     -74.09370000
H      -46.20090000     -32.48100000     -73.78600000
C      -46.71340000     -33.78450000     -72.19940000
H      -47.20560000     -34.65490000     -71.94010000
H      -45.63020000     -34.02320000     -71.98120000
C      -44.03340000     -32.35670000     -70.37240000
H      -44.05780000     -32.64370000     -71.43240000
H      -43.10260000     -31.84620000     -70.16610000
C      -45.23690000     -31.54280000     -70.05580000
C      -45.10720000     -30.46070000     -69.25620000
C      -46.61280000     -31.80040000     -70.42720000
H      -44.16910000     -30.03410000     -68.84520000
C      -47.44080000     -30.86470000     -69.78940000
C      -47.34060000     -32.70900000     -71.26480000
C      -48.70770000     -32.40860000     -71.25730000
S      -46.58360000     -29.58800000     -68.89570000
S      -49.09500000     -31.11750000     -70.07400000
H      -49.58540000     -32.83440000     -71.66990000
