40
Properties=species:S:1:pos:R:3 #=T CELL(abcABC):=T 1.889726e+02=T 90.00000=T Traj:=T positionsangstrom=T Step:=T 0=T Bead:=T pbc="F F F"
C      -43.89490000     -37.11000000     -73.28640000
C      -43.66420000     -35.75550000     -73.72210000
C      -42.90940000     -34.91460000     -72.93970000
C      -42.45950000     -35.33730000     -71.69070000
C      -42.74890000     -36.60660000     -71.20580000
C      -43.44610000     -37.48420000     -72.03900000
H      -44.45660000     -37.86620000     -73.89740000
H      -42.74290000     -33.90580000     -73.37160000
H      -42.51030000     -37.05150000     -70.21480000
H      -43.72480000     -38.45330000     -71.70070000
C      -41.63330000     -34.31300000     -70.87640000
H      -41.65590000     -33.36930000     -71.45350000
H      -40.60150000     -34.71040000     -70.72320000
C      -44.35140000     -35.25450000     -74.93680000
H      -43.80830000     -34.43310000     -75.35280000
H      -44.41080000     -36.08310000     -75.67520000
S      -42.31420000     -34.10740000     -69.16940000
S      -46.06930000     -34.55880000     -74.55650000
C      -43.97850000     -33.38100000     -69.33580000
H      -44.64170000     -34.23580000     -69.59190000
H      -44.28460000     -33.29940000     -68.27040000
C      -46.13480000     -33.37330000     -73.16740000
H      -46.97640000     -32.68910000     -73.41560000
H      -45.20950000     -32.86960000     -73.04490000
C      -46.49260000     -34.08190000     -71.81320000
H      -47.11350000     -34.99870000     -71.98910000
H      -45.53050000     -34.27620000     -71.39880000
C      -44.09780000     -32.12540000     -70.15370000
H      -43.75860000     -32.32870000     -71.18170000
H      -43.38390000     -31.37970000     -69.71570000
C      -45.44540000     -31.30660000     -70.11190000
C      -45.52720000     -29.99310000     -69.62010000
C      -46.74420000     -31.85130000     -70.35260000
H      -44.64150000     -29.44500000     -69.44420000
C      -47.72380000     -30.96610000     -69.99060000
C      -47.30630000     -33.08810000     -70.92310000
C      -48.64120000     -33.05110000     -70.96320000
S      -47.13390000     -29.42050000     -69.53090000
S      -49.35990000     -31.57500000     -70.26620000
H      -49.24830000     -33.71590000     -71.50750000
