40
Properties=species:S:1:pos:R:3 #=T CELL(abcABC):=T 1.889726e+02=T 90.00000=T Traj:=T positionsangstrom=T Step:=T 0=T Bead:=T pbc="F F F"
C      -46.69730000     -35.85360000     -68.57770000
C      -47.21720000     -35.73390000     -69.88100000
C      -47.94060000     -34.51310000     -70.22330000
C      -48.16870000     -33.47680000     -69.31910000
C      -47.59160000     -33.56850000     -68.05110000
C      -46.95480000     -34.77140000     -67.67470000
H      -46.23560000     -36.71050000     -68.17770000
H      -48.27970000     -34.37590000     -71.19200000
H      -47.65020000     -32.60530000     -67.49110000
H      -46.57310000     -34.79190000     -66.67740000
C      -49.03020000     -32.29500000     -69.65510000
H      -49.39150000     -31.68230000     -68.81870000
H      -49.88810000     -32.67580000     -70.05860000
C      -47.05100000     -36.91750000     -70.76370000
H      -46.18390000     -37.48260000     -70.51500000
H      -47.87640000     -37.61500000     -70.75400000
S      -48.29990000     -31.12800000     -70.90190000
S      -46.83700000     -36.37600000     -72.57170000
C      -46.50160000     -31.05200000     -70.71970000
H      -46.21940000     -30.19260000     -71.32500000
H      -46.17510000     -30.86670000     -69.69960000
C      -45.27170000     -35.37410000     -72.44780000
H      -44.46890000     -36.10900000     -72.32640000
H      -45.20200000     -34.85520000     -71.44890000
C      -44.96940000     -34.40140000     -73.55860000
H      -44.99870000     -35.08250000     -74.43260000
H      -45.76970000     -33.66780000     -73.60680000
C      -45.73400000     -32.28360000     -71.30550000
H      -46.07590000     -32.49700000     -72.31080000
H      -45.93030000     -33.07710000     -70.62940000
C      -44.19500000     -31.95070000     -71.33350000
C      -43.53200000     -30.93460000     -70.67980000
C      -43.38230000     -32.68820000     -72.29530000
H      -43.94800000     -30.47780000     -69.80670000
C      -42.03960000     -32.24830000     -72.27650000
C      -43.65680000     -33.70760000     -73.30760000
C      -42.53000000     -33.99120000     -73.97830000
S      -41.80860000     -30.83440000     -71.22950000
S      -41.12320000     -33.08830000     -73.53060000
H      -42.55310000     -34.62510000     -74.85610000
