40
Properties=species:S:1:pos:R:3 #=T CELL(abcABC):=T 1.889726e+02=T 90.00000=T Traj:=T positionsangstrom=T Step:=T 0=T Bead:=T pbc="F F F"
C      -46.34600000     -35.70100000     -68.89240000
C      -47.42770000     -35.78110000     -69.84780000
C      -48.19530000     -34.64780000     -70.13790000
C      -48.15180000     -33.52610000     -69.25960000
C      -47.08520000     -33.49600000     -68.23030000
C      -46.21980000     -34.56220000     -68.06290000
H      -45.87380000     -36.68570000     -68.67330000
H      -48.88890000     -34.68560000     -71.02080000
H      -47.00650000     -32.63750000     -67.49260000
H      -45.44280000     -34.55070000     -67.27300000
C      -49.05630000     -32.31810000     -69.44000000
H      -49.25360000     -31.75460000     -68.57570000
H      -50.05920000     -32.53660000     -69.79990000
C      -47.54670000     -37.01580000     -70.71630000
H      -47.31010000     -37.91380000     -70.16540000
H      -48.52490000     -37.18080000     -71.20850000
S      -48.38690000     -31.13490000     -70.72430000
S      -46.38930000     -36.80310000     -72.21230000
C      -46.55560000     -31.07000000     -70.37000000
H      -46.18430000     -29.98780000     -70.57420000
H      -46.40870000     -31.38420000     -69.31430000
C      -44.87280000     -35.77580000     -71.93930000
H      -44.04410000     -36.48720000     -71.95150000
H      -44.81600000     -35.33720000     -70.96400000
C      -44.86860000     -34.79870000     -73.15410000
H      -44.81720000     -35.34080000     -74.13140000
H      -45.75880000     -34.13150000     -73.16520000
C      -45.87770000     -32.01410000     -71.31930000
H      -46.41390000     -31.98340000     -72.31370000
H      -45.95950000     -33.00470000     -70.89150000
C      -44.39130000     -31.83080000     -71.54370000
C      -43.75640000     -30.65430000     -71.14780000
C      -43.44100000     -32.69380000     -72.28750000
H      -44.08940000     -29.86380000     -70.38820000
C      -42.25960000     -32.04420000     -72.50790000
C      -43.64410000     -33.91920000     -73.07250000
C      -42.51460000     -34.16850000     -73.80440000
S      -42.10810000     -30.51140000     -71.76860000
S      -41.28910000     -32.85120000     -73.69830000
H      -42.25620000     -34.88220000     -74.56430000
