40
Properties=species:S:1:pos:R:3 #=T CELL(abcABC):=T 1.889726e+02=T 90.00000=T Traj:=T positionsangstrom=T Step:=T 0=T Bead:=T pbc="F F F"
C      -46.50250000     -35.73120000     -68.73220000
C      -47.20370000     -35.76270000     -69.94840000
C      -48.05740000     -34.64320000     -70.19010000
C      -48.11310000     -33.51370000     -69.36070000
C      -47.28580000     -33.38530000     -68.17950000
C      -46.58540000     -34.52060000     -67.90560000
H      -45.82940000     -36.53490000     -68.41950000
H      -48.79670000     -34.77470000     -70.99390000
H      -47.29500000     -32.53800000     -67.56100000
H      -46.07420000     -34.51880000     -66.91160000
C      -49.10390000     -32.39090000     -69.64950000
H      -49.24500000     -31.91430000     -68.69220000
H      -50.06950000     -32.75870000     -70.15900000
C      -47.30070000     -36.99680000     -70.72470000
H      -46.83820000     -37.73090000     -70.09690000
H      -48.34960000     -37.21890000     -70.87680000
S      -48.32380000     -31.07520000     -70.84020000
S      -46.50460000     -36.81780000     -72.45700000
C      -46.49410000     -31.11100000     -70.47170000
H      -46.15400000     -30.13150000     -70.76830000
H      -46.38480000     -31.06700000     -69.38830000
C      -45.19070000     -35.56770000     -72.07290000
H      -44.26630000     -36.09120000     -71.80120000
H      -45.55680000     -34.94700000     -71.25030000
C      -44.99280000     -34.59410000     -73.26420000
H      -44.96880000     -35.30150000     -74.10450000
H      -45.86410000     -34.01010000     -73.40600000
C      -45.69750000     -32.21050000     -71.11320000
H      -46.20790000     -32.68520000     -71.91280000
H      -45.53280000     -33.04600000     -70.41920000
C      -44.31650000     -31.82210000     -71.48800000
C      -43.62060000     -30.75150000     -70.93800000
C      -43.46900000     -32.66080000     -72.31240000
H      -44.04250000     -29.89690000     -70.28000000
C      -42.18270000     -32.08280000     -72.43960000
C      -43.75500000     -33.77500000     -73.12320000
C      -42.64390000     -34.01770000     -73.87120000
S      -41.98350000     -30.56640000     -71.58610000
S      -41.22120000     -33.02830000     -73.53450000
H      -42.45730000     -34.95110000     -74.35730000
