40
Properties=species:S:1:pos:R:3 #=T CELL(abcABC):=T 1.889726e+02=T 90.00000=T Traj:=T positionsangstrom=T Step:=T 0=T Bead:=T pbc="F F F"
C      -46.50170000     -35.75620000     -68.63650000
C      -47.16020000     -35.75820000     -69.90480000
C      -48.05360000     -34.70250000     -70.22210000
C      -48.19710000     -33.56730000     -69.34540000
C      -47.60640000     -33.54280000     -68.14060000
C      -46.76280000     -34.65710000     -67.75440000
H      -45.79440000     -36.53940000     -68.44680000
H      -48.56970000     -34.52310000     -71.09330000
H      -47.78530000     -32.80370000     -67.43970000
H      -46.36110000     -34.62520000     -66.75730000
C      -49.10930000     -32.32020000     -69.70480000
H      -49.52910000     -31.87380000     -68.77070000
H      -49.96060000     -32.62760000     -70.38120000
C      -47.08430000     -36.97930000     -70.84770000
H      -46.38000000     -37.75340000     -70.47790000
H      -48.06200000     -37.49680000     -71.00510000
S      -48.37310000     -31.07230000     -70.86200000
S      -46.64430000     -36.56540000     -72.48230000
C      -46.56740000     -30.77500000     -70.51090000
H      -46.42780000     -29.93400000     -71.16960000
H      -46.40100000     -30.44990000     -69.44730000
C      -45.19980000     -35.47440000     -72.28070000
H      -44.24950000     -36.06580000     -72.20080000
H      -45.35040000     -34.99330000     -71.34320000
C      -44.94530000     -34.58210000     -73.44390000
H      -44.77000000     -35.08720000     -74.41570000
H      -45.74850000     -33.88470000     -73.66050000
C      -45.73290000     -32.03580000     -70.96020000
H      -46.31290000     -32.56310000     -71.70930000
H      -45.71020000     -32.71430000     -70.03850000
C      -44.29030000     -31.76740000     -71.54630000
C      -43.48550000     -30.89140000     -70.81280000
C      -43.56040000     -32.56180000     -72.52770000
H      -43.90680000     -29.99170000     -70.24130000
C      -42.18230000     -32.14720000     -72.48390000
C      -43.66560000     -33.74650000     -73.26890000
C      -42.48040000     -34.19200000     -73.80560000
S      -41.83710000     -30.86120000     -71.38770000
S      -41.15950000     -33.05500000     -73.47730000
H      -42.38800000     -35.03960000     -74.52740000
