40
Properties=species:S:1:pos:R:3 #=T CELL(abcABC):=T 1.889726e+02=T 90.00000=T Traj:=T positionsangstrom=T Step:=T 0=T Bead:=T pbc="F F F"
C      -46.76360000     -36.54130000     -70.48700000
C      -47.68400000     -35.74160000     -71.20510000
C      -48.07480000     -34.54420000     -70.53400000
C      -47.68790000     -34.30530000     -69.22600000
C      -46.77820000     -35.13360000     -68.52380000
C      -46.38370000     -36.31330000     -69.16320000
H      -46.32190000     -37.40440000     -71.02030000
H      -48.80970000     -33.82520000     -70.85940000
H      -46.59500000     -34.90630000     -67.49610000
H      -45.76040000     -37.03670000     -68.69980000
C      -48.19520000     -33.03360000     -68.47870000
H      -47.59050000     -32.84600000     -67.66390000
H      -49.23670000     -33.30870000     -68.17830000
C      -48.14660000     -36.15990000     -72.57160000
H      -48.23770000     -37.28080000     -72.54080000
H      -49.17950000     -35.73960000     -72.73300000
S      -48.18070000     -31.34160000     -69.35550000
S      -47.10520000     -35.56030000     -74.03250000
C      -46.38260000     -31.10390000     -69.52820000
H      -46.15540000     -30.05920000     -69.61330000
H      -45.87920000     -31.43610000     -68.53010000
C      -45.49150000     -35.03630000     -73.20780000
H      -44.72190000     -35.68440000     -73.53340000
H      -45.57470000     -35.00150000     -72.10070000
C      -44.98480000     -33.68650000     -73.76700000
H      -44.72880000     -33.83370000     -74.79870000
H      -45.87380000     -32.98890000     -73.68040000
C      -45.77250000     -31.95050000     -70.71710000
H      -46.43020000     -31.93040000     -71.61020000
H      -45.77940000     -33.04170000     -70.40350000
C      -44.32060000     -31.67150000     -71.01470000
C      -43.57540000     -30.89960000     -70.14340000
C      -43.48690000     -32.27600000     -72.06240000
H      -43.96760000     -30.60900000     -69.13270000
C      -42.12790000     -32.07500000     -71.82690000
C      -43.68520000     -33.18950000     -73.18220000
C      -42.51340000     -33.52850000     -73.81410000
S      -41.86000000     -31.11580000     -70.43040000
S      -41.08110000     -32.82090000     -73.04020000
H      -42.41450000     -34.14190000     -74.70250000
