40
Properties=species:S:1:pos:R:3 #=T CELL(abcABC):=T 1.889726e+02=T 90.00000=T Traj:=T positionsangstrom=T Step:=T 0=T Bead:=T pbc="F F F"
C      -48.97280000     -32.23690000     -71.10680000
C      -48.10930000     -31.81160000     -70.05140000
C      -47.03680000     -31.01690000     -70.34150000
C      -46.82000000     -30.55420000     -71.64650000
C      -47.70680000     -30.93520000     -72.65920000
C      -48.83680000     -31.73220000     -72.35780000
H      -49.80270000     -32.94670000     -70.94630000
H      -46.37680000     -30.76030000     -69.56140000
H      -47.66820000     -30.44660000     -73.58890000
H      -49.58280000     -31.91560000     -73.18030000
C      -45.59370000     -29.62410000     -71.80370000
H      -45.03610000     -29.50880000     -70.83720000
H      -46.05680000     -28.71750000     -72.09200000
C      -48.16570000     -32.33380000     -68.64060000
H      -47.43780000     -31.83990000     -67.92280000
H      -49.12460000     -32.16340000     -68.08830000
S      -44.42920000     -29.91470000     -73.18650000
S      -48.07650000     -34.16970000     -68.48950000
C      -44.02830000     -31.82130000     -73.06150000
H      -44.79290000     -32.41090000     -73.57860000
H      -43.10190000     -31.93180000     -73.68600000
C      -46.27990000     -34.77850000     -69.15220000
H      -46.21720000     -35.80460000     -68.83780000
H      -45.44140000     -34.18270000     -68.67940000
C      -46.44740000     -34.70410000     -70.70470000
H      -47.37230000     -35.22190000     -70.98650000
H      -46.55460000     -33.67450000     -71.12960000
C      -43.81490000     -32.17460000     -71.65020000
H      -44.71260000     -32.20840000     -71.06470000
H      -43.18550000     -31.40630000     -71.20270000
C      -43.17760000     -33.53320000     -71.61720000
C      -41.84690000     -33.62230000     -71.85190000
C      -43.88430000     -34.80920000     -71.59350000
H      -41.21410000     -32.82190000     -71.98270000
C      -42.96920000     -35.86630000     -71.83550000
C      -45.22040000     -35.31530000     -71.40910000
C      -45.26710000     -36.67800000     -71.51050000
S      -41.29310000     -35.23550000     -71.97910000
S      -43.74340000     -37.43900000     -71.83540000
H      -46.06500000     -37.33180000     -71.26520000
