40
Properties=species:S:1:pos:R:3 #=T CELL(abcABC):=T 1.889726e+02=T 90.00000=T Traj:=T positionsangstrom=T Step:=T 0=T Bead:=T pbc="F F F"
C      -46.74360000     -36.55290000     -70.62250000
C      -47.84050000     -35.85790000     -71.18670000
C      -48.37880000     -34.82900000     -70.39340000
C      -47.84860000     -34.43980000     -69.12310000
C      -46.85920000     -35.27350000     -68.56090000
C      -46.36690000     -36.36050000     -69.29570000
H      -46.39310000     -37.42690000     -71.16200000
H      -49.11110000     -34.23990000     -70.90060000
H      -46.46280000     -35.09150000     -67.52920000
H      -45.56320000     -37.05500000     -68.98140000
C      -48.27970000     -33.30050000     -68.34890000
H      -47.84150000     -33.22920000     -67.34010000
H      -49.32460000     -33.19310000     -68.24720000
C      -48.13760000     -36.10270000     -72.62310000
H      -47.83990000     -37.14990000     -72.85790000
H      -49.19630000     -36.09780000     -72.94310000
S      -48.07280000     -31.77310000     -69.38490000
S      -47.32400000     -34.99630000     -73.80590000
C      -46.26280000     -31.51260000     -69.42240000
H      -46.23070000     -30.44910000     -69.10290000
H      -45.85840000     -32.11440000     -68.68000000
C      -45.65500000     -34.74340000     -73.05770000
H      -45.00030000     -35.68640000     -73.30470000
H      -45.70320000     -34.77480000     -71.98400000
C      -45.05070000     -33.45130000     -73.62440000
H      -45.06570000     -33.61950000     -74.74560000
H      -45.79950000     -32.69740000     -73.42930000
C      -45.65660000     -31.78970000     -70.82220000
H      -46.05740000     -31.03520000     -71.51520000
H      -46.06760000     -32.76880000     -71.06290000
C      -44.14360000     -31.76570000     -70.91940000
C      -43.34530000     -31.06510000     -70.07860000
C      -43.41050000     -32.22130000     -72.08120000
H      -43.67020000     -30.59550000     -69.17030000
C      -42.04240000     -31.93810000     -71.98350000
C      -43.63650000     -33.09550000     -73.24290000
C      -42.53040000     -33.43770000     -73.94380000
S      -41.65980000     -31.21380000     -70.49020000
S      -41.10890000     -32.63760000     -73.21430000
H      -42.43050000     -34.25910000     -74.63260000
