40
Properties=species:S:1:pos:R:3 #=T CELL(abcABC):=T 1.889726e+02=T 90.00000=T Traj:=T positionsangstrom=T Step:=T 0=T Bead:=T pbc="F F F"
C      -46.46240000     -36.61630000     -71.03130000
C      -47.48090000     -35.72390000     -71.57730000
C      -48.13470000     -34.81740000     -70.80190000
C      -47.83540000     -34.76380000     -69.38980000
C      -46.92870000     -35.71810000     -68.84600000
C      -46.18670000     -36.62530000     -69.67470000
H      -45.99580000     -37.33090000     -71.70500000
H      -48.90140000     -34.14710000     -71.18400000
H      -46.70620000     -35.72290000     -67.78330000
H      -45.50700000     -37.34040000     -69.23630000
C      -48.51000000     -33.80800000     -68.49390000
H      -48.16360000     -34.03920000     -67.47960000
H      -49.62800000     -33.81590000     -68.51560000
C      -47.87830000     -35.91520000     -73.03260000
H      -47.34130000     -36.69230000     -73.53760000
H      -48.97760000     -36.01340000     -73.14310000
S      -48.02170000     -32.03840000     -68.93210000
S      -47.42350000     -34.41660000     -73.95030000
C      -46.12260000     -32.29350000     -69.05010000
H      -45.53710000     -31.73150000     -68.21970000
H      -45.98450000     -33.35190000     -68.91910000
C      -45.60410000     -34.11000000     -73.73030000
H      -45.01110000     -34.60060000     -74.52730000
H      -45.25030000     -34.55090000     -72.80780000
C      -45.29420000     -32.61920000     -73.85000000
H      -45.23010000     -32.36410000     -74.93000000
H      -45.98430000     -31.96320000     -73.36370000
C      -45.69320000     -31.80140000     -70.43210000
H      -45.92970000     -30.71820000     -70.56560000
H      -46.23810000     -32.37000000     -71.24880000
C      -44.21510000     -31.98960000     -70.61480000
C      -43.25680000     -31.84530000     -69.59300000
C      -43.51730000     -32.11010000     -71.89150000
H      -43.38990000     -31.74110000     -68.47810000
C      -42.09580000     -32.07170000     -71.72290000
C      -43.89910000     -32.36300000     -73.25760000
C      -42.82700000     -32.54660000     -74.08230000
S      -41.60490000     -31.85700000     -70.04150000
S      -41.23840000     -32.32070000     -73.21730000
H      -42.86500000     -32.60250000     -75.18020000
