40
Properties=species:S:1:pos:R:3 #=T CELL(abcABC):=T 1.889726e+02=T 90.00000=T Traj:=T positionsangstrom=T Step:=T 0=T Bead:=T pbc="F F F"
C      -46.53680000     -36.86710000     -70.67930000
C      -47.40680000     -35.97450000     -71.29860000
C      -48.05410000     -34.92160000     -70.55550000
C      -47.84330000     -34.73680000     -69.20680000
C      -46.97130000     -35.63650000     -68.58000000
C      -46.30980000     -36.68620000     -69.30400000
H      -45.87820000     -37.49020000     -71.25520000
H      -48.70960000     -34.25170000     -71.13170000
H      -46.70860000     -35.39480000     -67.56390000
H      -45.57620000     -37.18330000     -68.72780000
C      -48.59140000     -33.55940000     -68.48400000
H      -48.38570000     -33.51430000     -67.37100000
H      -49.67090000     -33.76050000     -68.63620000
C      -47.70400000     -36.04400000     -72.79950000
H      -47.12980000     -36.85350000     -73.27210000
H      -48.72910000     -36.29230000     -73.03020000
S      -48.10200000     -31.91800000     -69.23840000
S      -47.47880000     -34.58610000     -73.79730000
C      -46.15390000     -31.85000000     -69.21400000
H      -45.86080000     -30.90530000     -68.72280000
H      -45.75960000     -32.82000000     -68.70270000
C      -45.75160000     -34.17060000     -73.30300000
H      -45.14640000     -34.89650000     -73.74380000
H      -45.71110000     -34.30000000     -72.20530000
C      -45.28400000     -32.80000000     -73.78330000
H      -45.44790000     -32.61520000     -74.83820000
H      -45.97510000     -32.05260000     -73.34740000
C      -45.66990000     -31.72300000     -70.65240000
H      -46.07140000     -30.73540000     -71.05700000
H      -46.12660000     -32.47680000     -71.24750000
C      -44.19950000     -31.67220000     -70.86120000
C      -43.28540000     -31.35080000     -69.85320000
C      -43.46710000     -31.99810000     -72.05180000
H      -43.61020000     -31.16340000     -68.83730000
C      -42.10500000     -31.99680000     -71.89980000
C      -43.84330000     -32.52250000     -73.40660000
C      -42.74980000     -32.93410000     -74.12470000
S      -41.52740000     -31.51680000     -70.30690000
S      -41.16820000     -32.75100000     -73.24380000
H      -42.71190000     -33.46080000     -75.05800000
