40
Properties=species:S:1:pos:R:3 #=T CELL(abcABC):=T 1.889726e+02=T 90.00000=T Traj:=T positionsangstrom=T Step:=T 0=T Bead:=T pbc="F F F"
C      -46.40090000     -36.54210000     -71.42500000
C      -47.43990000     -35.77260000     -71.94060000
C      -48.14080000     -34.90370000     -71.02040000
C      -47.78560000     -34.92190000     -69.62570000
C      -46.77220000     -35.81190000     -69.11830000
C      -46.10620000     -36.61780000     -70.03430000
H      -45.98510000     -37.36910000     -72.03170000
H      -48.82340000     -34.18680000     -71.46470000
H      -46.40200000     -35.87330000     -68.10530000
H      -45.31110000     -37.29470000     -69.65810000
C      -48.41260000     -34.01700000     -68.63930000
H      -48.25710000     -34.44290000     -67.61680000
H      -49.48560000     -33.83680000     -68.79010000
C      -47.88300000     -35.65840000     -73.32720000
H      -47.45480000     -36.44420000     -74.00790000
H      -48.98520000     -35.73260000     -73.30960000
S      -47.84320000     -32.28680000     -68.59020000
S      -47.57260000     -33.97720000     -73.92850000
C      -46.07700000     -32.37850000     -68.74130000
H      -45.74340000     -31.51560000     -68.22750000
H      -45.74860000     -33.19330000     -68.04090000
C      -45.77580000     -33.90390000     -73.65070000
H      -45.18200000     -34.44940000     -74.42200000
H      -45.62070000     -34.35530000     -72.65220000
C      -45.41920000     -32.37040000     -73.68100000
H      -45.31730000     -31.96600000     -74.66520000
H      -46.16130000     -31.75920000     -73.23760000
C      -45.56270000     -32.52330000     -70.17760000
H      -46.09780000     -31.81130000     -70.83300000
H      -45.84970000     -33.51300000     -70.55120000
C      -44.10140000     -32.36280000     -70.40500000
C      -43.22540000     -32.03300000     -69.44710000
C      -43.49610000     -32.37780000     -71.75280000
H      -43.36500000     -32.05010000     -68.38100000
C      -42.12480000     -32.18880000     -71.69770000
C      -44.01440000     -32.23310000     -73.11380000
C      -42.99310000     -32.08250000     -74.00250000
S      -41.52880000     -31.83890000     -70.08030000
S      -41.41620000     -32.13850000     -73.26220000
H      -43.06190000     -32.29290000     -75.06540000
