40
Properties=species:S:1:pos:R:3 #=T CELL(abcABC):=T 1.889726e+02=T 90.00000=T Traj:=T positionsangstrom=T Step:=T 0=T Bead:=T pbc="F F F"
C      -46.57460000     -36.62040000     -72.56670000
C      -47.55340000     -35.61920000     -72.45860000
C      -48.00130000     -35.28400000     -71.16350000
C      -47.46750000     -35.88610000     -70.00620000
C      -46.50990000     -36.90200000     -70.10840000
C      -46.09770000     -37.17810000     -71.41070000
H      -46.21100000     -36.90500000     -73.54370000
H      -48.77640000     -34.56770000     -70.96670000
H      -45.99720000     -37.25350000     -69.16940000
H      -45.40540000     -37.95470000     -71.54500000
C      -47.95710000     -35.42590000     -68.67410000
H      -47.47260000     -36.00950000     -67.90090000
H      -49.07650000     -35.48690000     -68.66310000
C      -48.11440000     -34.84130000     -73.61710000
H      -47.71830000     -35.20630000     -74.52260000
H      -49.18490000     -35.11110000     -73.71090000
S      -47.70110000     -33.65470000     -68.28230000
S      -47.93290000     -32.96280000     -73.58660000
C      -45.86760000     -33.33650000     -68.52560000
H      -45.44310000     -32.81060000     -67.73680000
H      -45.30670000     -34.37160000     -68.61170000
C      -46.08700000     -32.81630000     -73.27320000
H      -45.53540000     -33.23840000     -74.11570000
H      -45.93090000     -33.53480000     -72.46900000
C      -45.63740000     -31.38830000     -72.86420000
H      -45.89790000     -30.64530000     -73.71710000
H      -46.07880000     -31.17820000     -71.89850000
C      -45.46270000     -32.55030000     -69.86170000
H      -45.87190000     -31.51960000     -69.59190000
H      -46.09410000     -32.89680000     -70.62360000
C      -43.98820000     -32.46710000     -70.25330000
C      -42.98370000     -32.65590000     -69.33280000
C      -43.51460000     -32.01410000     -71.54560000
H      -42.99250000     -32.87310000     -68.31020000
C      -42.11030000     -31.94170000     -71.65470000
C      -44.14220000     -31.43110000     -72.69450000
C      -43.24420000     -30.97340000     -73.62260000
S      -41.38450000     -32.21810000     -70.09160000
S      -41.51000000     -31.16940000     -73.19510000
H      -43.50070000     -30.51130000     -74.56060000
