40
Properties=species:S:1:pos:R:3 #=T CELL(abcABC):=T 1.889726e+02=T 90.00000=T Traj:=T positionsangstrom=T Step:=T 0=T Bead:=T pbc="F F F"
C      -46.49890000     -36.32070000     -72.78540000
C      -47.58510000     -35.46230000     -72.43170000
C      -47.91070000     -35.30690000     -71.06840000
C      -47.21910000     -36.00410000     -70.08070000
C      -46.17820000     -36.91850000     -70.39230000
C      -45.83860000     -37.01700000     -71.74690000
H      -46.17330000     -36.48860000     -73.78870000
H      -48.63110000     -34.52520000     -70.92000000
H      -45.66920000     -37.44130000     -69.60950000
H      -45.08510000     -37.81630000     -71.90960000
C      -47.55450000     -35.65140000     -68.63020000
H      -47.00630000     -36.36010000     -67.99010000
H      -48.61430000     -35.75130000     -68.41200000
C      -48.24990000     -34.75710000     -73.58640000
H      -47.88620000     -35.19620000     -74.58790000
H      -49.35980000     -34.87040000     -73.69090000
S      -47.34300000     -33.90410000     -68.03150000
S      -48.05310000     -32.96570000     -73.52760000
C      -45.56980000     -33.47080000     -68.43020000
H      -45.24100000     -32.91280000     -67.55910000
H      -45.04670000     -34.41320000     -68.55340000
C      -46.20990000     -32.75870000     -73.45040000
H      -45.70880000     -33.02740000     -74.36710000
H      -45.86020000     -33.52960000     -72.78380000
C      -45.83420000     -31.34290000     -73.06110000
H      -46.11330000     -30.60890000     -73.83570000
H      -46.37630000     -31.12260000     -72.07100000
C      -45.52370000     -32.81850000     -69.75510000
H      -46.14690000     -31.89330000     -69.80070000
H      -45.94350000     -33.40670000     -70.56300000
C      -44.11530000     -32.38520000     -70.20340000
C      -43.05470000     -32.58190000     -69.36330000
C      -43.70730000     -31.92060000     -71.54730000
H      -43.04900000     -32.88800000     -68.26830000
C      -42.35220000     -31.83310000     -71.62930000
C      -44.37390000     -31.37710000     -72.73500000
C      -43.38980000     -30.99550000     -73.67540000
S      -41.46690000     -32.17960000     -70.11760000
S      -41.75150000     -31.09520000     -73.07780000
H      -43.61210000     -30.26200000     -74.51630000
