40
Properties=species:S:1:pos:R:3 #=T CELL(abcABC):=T 1.889726e+02=T 90.00000=T Traj:=T positionsangstrom=T Step:=T 0=T Bead:=T pbc="F F F"
C      -46.74340000     -36.44990000     -72.12020000
C      -47.73280000     -35.43830000     -72.12900000
C      -48.16890000     -34.97760000     -70.89220000
C      -47.54510000     -35.36120000     -69.70640000
C      -46.63370000     -36.45640000     -69.73310000
C      -46.32410000     -37.06710000     -70.95410000
H      -46.24180000     -36.72060000     -73.09100000
H      -48.95100000     -34.19460000     -70.87730000
H      -46.20050000     -36.84910000     -68.84130000
H      -45.69770000     -37.98330000     -70.95170000
C      -47.96380000     -34.81450000     -68.31680000
H      -47.55180000     -35.31000000     -67.43590000
H      -49.06150000     -34.87910000     -68.18850000
C      -48.35810000     -34.93750000     -73.38990000
H      -48.38320000     -35.72500000     -74.21730000
H      -49.42650000     -34.70870000     -73.07920000
S      -47.59510000     -32.97060000     -68.25850000
S      -47.75180000     -33.44290000     -74.09110000
C      -45.77350000     -33.00660000     -68.63190000
H      -45.47260000     -32.12450000     -68.18300000
H      -45.29590000     -33.85880000     -68.06680000
C      -45.89350000     -33.36170000     -73.61770000
H      -45.32940000     -33.87160000     -74.43970000
H      -45.66610000     -34.07480000     -72.74830000
C      -45.46470000     -31.92650000     -73.42130000
H      -45.59250000     -31.36820000     -74.35120000
H      -46.09890000     -31.40950000     -72.74940000
C      -45.54300000     -32.92960000     -70.11020000
H      -46.15280000     -32.04720000     -70.40490000
H      -45.88970000     -33.81870000     -70.60500000
C      -44.06910000     -32.62130000     -70.50270000
C      -43.07430000     -32.85680000     -69.55640000
C      -43.50800000     -31.91940000     -71.60210000
H      -43.22550000     -33.31680000     -68.59350000
C      -42.11770000     -31.68880000     -71.50080000
C      -44.03850000     -31.69190000     -72.95170000
C      -43.01800000     -31.38390000     -73.83290000
S      -41.48550000     -32.37430000     -69.98240000
S      -41.42140000     -31.34130000     -73.06950000
H      -43.17310000     -31.14300000     -74.92660000
