40
Properties=species:S:1:pos:R:3 #=T CELL(abcABC):=T 1.889726e+02=T 90.00000=T Traj:=T positionsangstrom=T Step:=T 0=T Bead:=T pbc="F F F"
C      -43.34900000     -36.89060000     -70.79050000
C      -42.88200000     -35.83710000     -71.61120000
C      -42.53910000     -34.59060000     -70.99370000
C      -42.62190000     -34.51890000     -69.57010000
C      -42.94940000     -35.63530000     -68.80410000
C      -43.37960000     -36.85790000     -69.42610000
H      -43.56710000     -37.85830000     -71.28940000
H      -42.13600000     -33.76430000     -71.63490000
H      -42.88920000     -35.61920000     -67.73110000
H      -43.75130000     -37.69670000     -68.89120000
C      -42.18950000     -33.19550000     -68.92460000
H      -41.63260000     -32.62450000     -69.70840000
H      -41.47780000     -33.35300000     -68.11240000
C      -42.72570000     -36.04480000     -73.03640000
H      -42.18120000     -35.25420000     -73.55960000
H      -42.18250000     -37.01140000     -73.17920000
S      -43.45140000     -32.14310000     -68.10530000
S      -44.34490000     -36.18850000     -73.94880000
C      -44.91430000     -32.37270000     -69.26260000
H      -45.08910000     -33.42280000     -69.51340000
H      -45.76930000     -31.90280000     -68.84810000
C      -44.97090000     -34.45240000     -73.47390000
H      -45.58820000     -34.14950000     -74.28310000
H      -44.15690000     -33.72480000     -73.37030000
C      -45.80170000     -34.42210000     -72.24110000
H      -46.32350000     -35.37980000     -72.32570000
H      -45.17850000     -34.41400000     -71.35880000
C      -44.70330000     -31.53310000     -70.57290000
H      -44.12960000     -32.19640000     -71.20030000
H      -44.12360000     -30.66480000     -70.37370000
C      -46.06890000     -31.21620000     -71.17360000
C      -46.62320000     -29.95610000     -70.96650000
C      -47.05690000     -32.12120000     -71.69850000
H      -46.09210000     -29.13630000     -70.45410000
C      -48.21670000     -31.42240000     -72.03240000
C      -46.99340000     -33.46960000     -72.24720000
C      -48.16250000     -33.71510000     -72.93490000
S      -48.22820000     -29.73870000     -71.58440000
S      -49.37020000     -32.31780000     -73.04250000
H      -48.50570000     -34.58690000     -73.45470000
