40
Properties=species:S:1:pos:R:3 #=T CELL(abcABC):=T 1.889726e+02=T 90.00000=T Traj:=T positionsangstrom=T Step:=T 0=T Bead:=T pbc="F F F"
C      -46.94500000     -36.56910000     -73.13470000
C      -47.62270000     -35.38710000     -72.68810000
C      -47.74670000     -35.26370000     -71.30010000
C      -47.22280000     -36.14220000     -70.36860000
C      -46.50280000     -37.22720000     -70.83330000
C      -46.44690000     -37.47230000     -72.19620000
H      -46.74710000     -36.72080000     -74.20080000
H      -48.30310000     -34.41310000     -70.86030000
H      -45.93440000     -37.89470000     -70.10730000
H      -46.08760000     -38.45160000     -72.55030000
C      -47.41100000     -35.99210000     -68.92170000
H      -46.82650000     -36.69750000     -68.39020000
H      -48.42360000     -36.12450000     -68.62570000
C      -48.40890000     -34.43960000     -73.53390000
H      -47.96300000     -34.49690000     -74.60340000
H      -49.48160000     -34.70100000     -73.68190000
S      -47.00750000     -34.34320000     -68.14750000
S      -48.27510000     -32.69300000     -72.94500000
C      -45.23830000     -34.10960000     -68.64930000
H      -44.67860000     -33.55410000     -67.93400000
H      -44.75420000     -35.05080000     -68.48590000
C      -46.45700000     -32.53260000     -73.04780000
H      -46.11390000     -32.52180000     -74.10670000
H      -45.98900000     -33.41120000     -72.64670000
C      -45.97200000     -31.24390000     -72.35490000
H      -46.24280000     -30.34840000     -72.94730000
H      -46.36550000     -31.03040000     -71.35840000
C      -45.03050000     -33.41800000     -70.05840000
H      -45.79020000     -32.60910000     -70.16910000
H      -45.36930000     -34.10210000     -70.84300000
C      -43.73420000     -32.84720000     -70.40310000
C      -42.56540000     -33.17770000     -69.77490000
C      -43.55070000     -31.83480000     -71.42760000
H      -42.34840000     -33.83310000     -69.03540000
C      -42.26380000     -31.39410000     -71.54140000
C      -44.46070000     -31.23440000     -72.33120000
C      -43.80610000     -30.28840000     -73.09320000
S      -41.17070000     -32.17000000     -70.38390000
S      -42.07190000     -30.22200000     -72.83510000
H      -44.32740000     -29.66450000     -73.84040000
