40
Properties=species:S:1:pos:R:3 #=T CELL(abcABC):=T 1.889726e+02=T 90.00000=T Traj:=T positionsangstrom=T Step:=T 0=T Bead:=T pbc="F F F"
C      -46.59730000     -36.27120000     -72.93760000
C      -47.67040000     -35.44470000     -72.45170000
C      -47.95670000     -35.32200000     -71.10500000
C      -47.18110000     -35.99640000     -70.16040000
C      -46.08770000     -36.74930000     -70.63450000
C      -45.79250000     -36.92150000     -71.96620000
H      -46.48840000     -36.55800000     -74.01030000
H      -48.83590000     -34.68670000     -70.90290000
H      -45.54600000     -37.30800000     -69.88390000
H      -45.01970000     -37.55200000     -72.37670000
C      -47.38760000     -35.77760000     -68.66590000
H      -46.53720000     -36.28000000     -68.18160000
H      -48.15820000     -36.27690000     -68.15880000
C      -48.62750000     -34.75470000     -73.38270000
H      -48.48850000     -35.15570000     -74.42880000
H      -49.66820000     -34.95430000     -72.96760000
S      -47.38210000     -33.98800000     -68.26430000
S      -48.21130000     -32.93330000     -73.37070000
C      -45.59340000     -33.47260000     -68.39490000
H      -45.52850000     -32.57330000     -67.76040000
H      -45.00400000     -34.28920000     -68.06810000
C      -46.36220000     -32.92720000     -73.39920000
H      -45.95580000     -33.24070000     -74.35460000
H      -46.04040000     -33.66800000     -72.68300000
C      -45.84900000     -31.54530000     -72.92710000
H      -46.15510000     -30.69460000     -73.62070000
H      -46.43840000     -31.31710000     -72.03320000
C      -45.27800000     -33.26720000     -69.86440000
H      -46.07050000     -32.69880000     -70.23740000
H      -45.27720000     -34.28760000     -70.33000000
C      -43.87530000     -32.68990000     -70.27030000
C      -42.77960000     -32.81380000     -69.47660000
C      -43.63400000     -31.97500000     -71.48800000
H      -42.81270000     -33.32700000     -68.51310000
C      -42.28310000     -31.54620000     -71.48070000
C      -44.36240000     -31.51230000     -72.65740000
C      -43.46580000     -30.82150000     -73.51130000
S      -41.31630000     -32.10290000     -70.13660000
S      -41.84250000     -30.70070000     -72.91630000
H      -43.67320000     -30.43720000     -74.43920000
