40
Properties=species:S:1:pos:R:3 #=T CELL(abcABC):=T 1.889726e+02=T 90.00000=T Traj:=T positionsangstrom=T Step:=T 0=T Bead:=T pbc="F F F"
C      -47.08490000     -36.55610000     -73.12070000
C      -47.78490000     -35.45560000     -72.61960000
C      -47.93150000     -35.34560000     -71.21290000
C      -47.16560000     -36.10450000     -70.35830000
C      -46.44250000     -37.18140000     -70.94370000
C      -46.51340000     -37.46020000     -72.26940000
H      -47.04980000     -36.82300000     -74.14650000
H      -48.45150000     -34.47070000     -70.75810000
H      -45.88190000     -37.75550000     -70.23830000
H      -45.99790000     -38.40200000     -72.63040000
C      -47.22970000     -35.94710000     -68.79960000
H      -46.58390000     -36.76460000     -68.32630000
H      -48.27430000     -36.23670000     -68.52390000
C      -48.28820000     -34.50000000     -73.64790000
H      -47.80440000     -34.70390000     -74.57130000
H      -49.35210000     -34.60100000     -73.82490000
S      -46.93510000     -34.33250000     -68.13140000
S      -48.23630000     -32.76170000     -73.20180000
C      -45.16140000     -33.92430000     -68.45190000
H      -44.94850000     -33.09640000     -67.79960000
H      -44.54810000     -34.87220000     -68.27580000
C      -46.42480000     -32.44550000     -73.07260000
H      -45.99050000     -32.47170000     -74.09150000
H      -46.00830000     -33.28810000     -72.49820000
C      -45.98990000     -31.13050000     -72.40760000
H      -46.42210000     -30.28990000     -72.90330000
H      -46.45830000     -31.15190000     -71.46840000
C      -45.04590000     -33.54270000     -69.94870000
H      -46.01610000     -33.00530000     -70.25750000
H      -44.98640000     -34.37910000     -70.65990000
C      -43.80960000     -32.76940000     -70.28860000
C      -42.61840000     -33.12780000     -69.72230000
C      -43.63820000     -31.73420000     -71.30130000
H      -42.41870000     -33.79200000     -68.99790000
C      -42.27120000     -31.40670000     -71.47650000
C      -44.48170000     -31.03820000     -72.24130000
C      -43.75270000     -30.17010000     -73.06910000
S      -41.25460000     -32.37940000     -70.49520000
S      -42.01940000     -30.22930000     -72.76590000
H      -44.11970000     -29.52690000     -73.83280000
