40
Properties=species:S:1:pos:R:3 #=T CELL(abcABC):=T 1.889726e+02=T 90.00000=T Traj:=T positionsangstrom=T Step:=T 0=T Bead:=T pbc="F F F"
C      -46.61830000     -36.41920000     -72.83450000
C      -47.63570000     -35.50570000     -72.44430000
C      -47.95080000     -35.34970000     -71.11370000
C      -47.22950000     -35.98990000     -70.10700000
C      -46.06550000     -36.73940000     -70.46970000
C      -45.76940000     -36.91570000     -71.82160000
H      -46.34510000     -36.44500000     -73.89050000
H      -48.77310000     -34.68620000     -70.84070000
H      -45.35930000     -37.24270000     -69.77140000
H      -44.87690000     -37.38400000     -72.27010000
C      -47.47580000     -35.73520000     -68.59790000
H      -46.75470000     -36.28470000     -67.96750000
H      -48.55390000     -35.98660000     -68.40760000
C      -48.40830000     -34.78880000     -73.51020000
H      -48.18250000     -35.21210000     -74.43110000
H      -49.47190000     -34.77670000     -73.35880000
S      -47.39520000     -33.91850000     -68.14680000
S      -48.16840000     -32.96700000     -73.49620000
C      -45.67480000     -33.49320000     -68.51350000
H      -45.33190000     -32.68780000     -67.91910000
H      -44.95570000     -34.35700000     -68.19550000
C      -46.32040000     -32.85520000     -73.38190000
H      -45.96340000     -32.87520000     -74.44030000
H      -45.90270000     -33.66200000     -72.71110000
C      -45.85730000     -31.48190000     -72.77090000
H      -46.20460000     -30.71820000     -73.47990000
H      -46.27470000     -31.25740000     -71.84650000
C      -45.39330000     -33.05300000     -69.92080000
H      -46.14330000     -32.21200000     -70.16400000
H      -45.74630000     -33.82180000     -70.53720000
C      -43.94790000     -32.52180000     -70.20300000
C      -42.85780000     -32.70740000     -69.38840000
C      -43.59130000     -31.90510000     -71.48010000
H      -42.87100000     -33.09960000     -68.31510000
C      -42.21990000     -31.60460000     -71.53250000
C      -44.38720000     -31.39020000     -72.62450000
C      -43.53760000     -30.88760000     -73.61030000
S      -41.31380000     -32.12160000     -70.07520000
S      -41.81750000     -30.96080000     -73.13600000
H      -43.93220000     -30.40180000     -74.46600000
