40
Properties=species:S:1:pos:R:3 #=T CELL(abcABC):=T 1.889726e+02=T 90.00000=T Traj:=T positionsangstrom=T Step:=T 0=T Bead:=T pbc="F F F"
C      -46.86700000     -35.82340000     -73.21390000
C      -47.90770000     -35.32210000     -72.33170000
C      -47.71690000     -35.55300000     -70.92520000
C      -46.63760000     -36.33370000     -70.42000000
C      -45.73520000     -36.83580000     -71.34790000
C      -45.75400000     -36.54240000     -72.71590000
H      -47.17550000     -35.71000000     -74.25720000
H      -48.34880000     -35.09910000     -70.15970000
H      -44.82060000     -37.40160000     -70.93350000
H      -44.83610000     -36.86460000     -73.33900000
C      -46.51750000     -36.41640000     -68.96580000
H      -45.56780000     -36.84170000     -68.77010000
H      -47.23090000     -37.15950000     -68.49030000
C      -48.99330000     -34.45420000     -72.87020000
H      -49.05990000     -34.76670000     -73.92270000
H      -49.97590000     -34.55600000     -72.35900000
S      -46.61480000     -34.90220000     -67.99420000
S      -48.56380000     -32.67650000     -72.78570000
C      -45.01310000     -34.01130000     -68.32480000
H      -44.81880000     -33.24280000     -67.57100000
H      -44.14290000     -34.75170000     -68.36870000
C      -46.76810000     -32.41670000     -73.08660000
H      -46.58420000     -32.14370000     -74.13420000
H      -46.19470000     -33.39700000     -72.98620000
C      -46.18440000     -31.28590000     -72.22850000
H      -46.59940000     -30.27870000     -72.49170000
H      -46.55680000     -31.46680000     -71.17020000
C      -45.17120000     -33.30910000     -69.73860000
H      -45.91120000     -32.51710000     -69.51020000
H      -45.68880000     -33.95190000     -70.42920000
C      -43.85700000     -32.67950000     -70.32880000
C      -42.63570000     -33.10690000     -69.93520000
C      -43.74580000     -31.69620000     -71.44070000
H      -42.56850000     -33.77930000     -69.09670000
C      -42.45080000     -31.33090000     -71.67160000
C      -44.69900000     -31.18500000     -72.38330000
C      -44.09590000     -30.43270000     -73.30490000
S      -41.26490000     -32.16580000     -70.58880000
S      -42.35210000     -30.42690000     -73.17350000
H      -44.62940000     -29.95950000     -74.11890000
