40
Properties=species:S:1:pos:R:3 #=T CELL(abcABC):=T 1.889726e+02=T 90.00000=T Traj:=T positionsangstrom=T Step:=T 0=T Bead:=T pbc="F F F"
C      -47.05270000     -35.76170000     -68.68880000
C      -45.73550000     -35.25450000     -68.63720000
C      -45.55230000     -33.93110000     -68.45110000
C      -46.59690000     -33.05090000     -68.25110000
C      -47.90150000     -33.52280000     -68.48770000
C      -48.12820000     -34.87230000     -68.63950000
H      -47.25170000     -36.83930000     -68.71050000
H      -44.55840000     -33.54860000     -68.49110000
H      -48.67060000     -32.77380000     -68.62520000
H      -49.12470000     -35.18030000     -68.67190000
C      -46.24520000     -31.55850000     -68.04170000
H      -45.22560000     -31.50830000     -68.21800000
H      -46.42340000     -31.27180000     -67.02560000
C      -44.51550000     -36.18540000     -68.71200000
H      -43.89950000     -35.80680000     -67.94610000
H      -44.75380000     -37.29230000     -68.49030000
S      -47.07600000     -30.44320000     -69.29000000
S      -43.76220000     -36.19320000     -70.37010000
C      -46.59720000     -31.27680000     -70.77040000
H      -47.04490000     -32.22840000     -70.94490000
H      -46.87270000     -30.64810000     -71.60690000
C      -45.29480000     -36.26460000     -71.41160000
H      -45.91890000     -37.02860000     -70.95940000
H      -44.84320000     -36.73180000     -72.30400000
C      -45.82080000     -34.92570000     -71.86430000
H      -46.92320000     -34.95480000     -71.97930000
H      -45.68910000     -34.16350000     -71.04350000
C      -45.07950000     -31.45380000     -70.86050000
H      -44.66160000     -32.29590000     -70.32570000
H      -44.55050000     -30.56120000     -70.42120000
C      -44.74800000     -31.70140000     -72.35150000
C      -44.15120000     -30.65990000     -72.98670000
C      -44.80350000     -32.86560000     -73.24600000
H      -43.87970000     -29.69720000     -72.55100000
C      -44.20150000     -32.66370000     -74.45480000
C      -45.13350000     -34.27440000     -73.01140000
C      -44.61930000     -34.99420000     -74.09790000
S      -43.59640000     -30.99320000     -74.65010000
S      -44.00410000     -34.02550000     -75.44050000
H      -44.77150000     -36.07510000     -74.29460000
