40
Properties=species:S:1:pos:R:3 #=T CELL(abcABC):=T 1.889726e+02=T 90.00000=T Traj:=T positionsangstrom=T Step:=T 0=T Bead:=T pbc="F F F"
C      -46.90110000     -36.18750000     -73.17100000
C      -47.82500000     -35.39500000     -72.48350000
C      -47.91530000     -35.48950000     -71.07490000
C      -47.07250000     -36.38060000     -70.38950000
C      -46.22260000     -37.31700000     -71.10610000
C      -46.15490000     -37.19800000     -72.48860000
H      -46.71240000     -36.15020000     -74.23600000
H      -48.54170000     -34.79030000     -70.54100000
H      -45.76640000     -38.23810000     -70.60220000
H      -45.49280000     -37.75370000     -73.01760000
C      -47.06010000     -36.42390000     -68.81870000
H      -46.34240000     -37.09610000     -68.48130000
H      -48.00280000     -36.83730000     -68.48560000
C      -48.54690000     -34.34970000     -73.34650000
H      -48.18180000     -34.47110000     -74.34920000
H      -49.65330000     -34.39570000     -73.42920000
S      -46.84750000     -34.79550000     -68.02430000
S      -48.28560000     -32.58700000     -72.84680000
C      -45.21160000     -34.03930000     -68.67610000
H      -44.67940000     -33.70660000     -67.75140000
H      -44.60470000     -34.92820000     -68.88570000
C      -46.44480000     -32.29630000     -73.07900000
H      -46.35380000     -32.10940000     -74.14340000
H      -45.87330000     -33.20940000     -72.86580000
C      -46.00500000     -31.05870000     -72.28470000
H      -46.42840000     -30.18960000     -72.72470000
H      -46.49630000     -31.13980000     -71.28750000
C      -45.22710000     -32.95520000     -69.72710000
H      -45.79470000     -32.08320000     -69.37870000
H      -45.69600000     -33.45460000     -70.59280000
C      -43.83440000     -32.53270000     -70.20820000
C      -42.64040000     -32.99180000     -69.71110000
C      -43.68080000     -31.68100000     -71.37140000
H      -42.43330000     -33.64480000     -68.86560000
C      -42.34480000     -31.44650000     -71.64320000
C      -44.52860000     -30.97900000     -72.26620000
C      -43.87220000     -30.18710000     -73.21210000
S      -41.23890000     -32.29050000     -70.55830000
S      -42.12560000     -30.43690000     -73.12950000
H      -44.34640000     -29.58200000     -74.03260000
