40
Properties=species:S:1:pos:R:3 #=T CELL(abcABC):=T 1.889726e+02=T 90.00000=T Traj:=T positionsangstrom=T Step:=T 0=T Bead:=T pbc="F F F"
C      -43.00310000     -35.03340000     -73.15050000
C      -43.18820000     -35.67400000     -71.88790000
C      -42.67310000     -35.02990000     -70.77010000
C      -41.94160000     -33.81960000     -70.93740000
C      -41.67180000     -33.29680000     -72.20950000
C      -42.33100000     -33.87900000     -73.34440000
H      -43.69700000     -35.38920000     -73.92710000
H      -42.79270000     -35.50210000     -69.79390000
H      -41.02310000     -32.43700000     -72.31650000
H      -42.05310000     -33.67920000     -74.35620000
C      -41.35230000     -33.14410000     -69.72710000
H      -40.78420000     -32.25980000     -70.08280000
H      -40.68840000     -33.80000000     -69.17120000
C      -44.05460000     -36.91140000     -71.72930000
H      -43.46640000     -37.81750000     -71.77240000
H      -44.50160000     -36.89070000     -70.73530000
S      -42.57010000     -32.45210000     -68.44700000
S      -45.45870000     -37.11360000     -72.91930000
C      -43.74540000     -31.53080000     -69.53520000
H      -44.26700000     -30.80890000     -68.86720000
H      -43.31960000     -30.84030000     -70.30810000
C      -46.83940000     -35.94340000     -72.42410000
H      -47.49870000     -36.55460000     -71.87570000
H      -47.43320000     -35.72910000     -73.36700000
C      -46.34470000     -34.67580000     -71.74500000
H      -46.08490000     -34.91660000     -70.69250000
H      -45.46440000     -34.28310000     -72.29030000
C      -44.71830000     -32.46170000     -70.25980000
H      -45.17930000     -33.11210000     -69.52110000
H      -44.40170000     -33.06730000     -71.13980000
C      -45.98060000     -31.71550000     -70.69250000
C      -46.23020000     -30.39310000     -70.47530000
C      -47.17120000     -32.29960000     -71.24200000
H      -45.55650000     -29.59280000     -70.05840000
C      -48.24830000     -31.44810000     -71.43810000
C      -47.44300000     -33.61620000     -71.82010000
C      -48.71910000     -33.79290000     -72.31600000
S      -47.88020000     -29.90160000     -70.78080000
S      -49.58930000     -32.30630000     -72.19020000
H      -49.12860000     -34.73630000     -72.74320000
