40
Properties=species:S:1:pos:R:3 #=T CELL(abcABC):=T 1.889726e+02=T 90.00000=T Traj:=T positionsangstrom=T Step:=T 0=T Bead:=T pbc="F F F"
C      -45.19190000     -36.21740000     -68.02180000
C      -45.23610000     -36.28120000     -69.44340000
C      -46.45240000     -36.03310000     -70.12020000
C      -47.57720000     -35.50140000     -69.46870000
C      -47.42610000     -35.34190000     -68.06930000
C      -46.29780000     -35.76720000     -67.30810000
H      -44.28850000     -36.57040000     -67.52700000
H      -46.38110000     -36.04660000     -71.22830000
H      -48.30170000     -34.91160000     -67.67460000
H      -46.32780000     -35.57520000     -66.22120000
C      -48.87710000     -35.03190000     -70.20230000
H      -49.66680000     -35.48860000     -69.62430000
H      -49.04080000     -35.38490000     -71.27020000
C      -44.07340000     -36.97480000     -70.01090000
H      -43.12110000     -36.71890000     -69.50370000
H      -44.27320000     -38.07480000     -69.93850000
S      -49.06060000     -33.22110000     -70.25290000
S      -43.73760000     -36.66830000     -71.80150000
C      -47.60210000     -32.69270000     -71.29760000
H      -47.36900000     -33.53140000     -71.94950000
H      -47.95160000     -31.97910000     -71.92490000
C      -43.55090000     -34.81450000     -71.88510000
H      -42.40480000     -34.55850000     -71.98520000
H      -43.74010000     -34.40570000     -70.87680000
C      -44.40640000     -34.24430000     -72.96960000
H      -44.26060000     -34.72750000     -73.98270000
H      -45.43090000     -34.14830000     -72.65890000
C      -46.20230000     -32.26430000     -70.56170000
H      -45.54960000     -33.18230000     -70.40260000
H      -46.39950000     -31.76630000     -69.59290000
C      -45.39160000     -31.24950000     -71.46270000
C      -45.41150000     -29.88000000     -71.25510000
C      -44.45760000     -31.57350000     -72.56310000
H      -45.97600000     -29.39400000     -70.42510000
C      -43.78430000     -30.42720000     -73.07880000
C      -43.97950000     -32.78630000     -73.26440000
C      -43.03770000     -32.49790000     -74.20500000
S      -44.32260000     -28.96330000     -72.32450000
S      -42.58790000     -30.81990000     -74.25750000
H      -42.56310000     -33.24160000     -74.77510000
