40
Properties=species:S:1:pos:R:3 #=T CELL(abcABC):=T 1.889726e+02=T 90.00000=T Traj:=T positionsangstrom=T Step:=T 0=T Bead:=T pbc="F F F"
C      -45.20740000     -36.07520000     -68.03210000
C      -45.22540000     -36.50860000     -69.37780000
C      -46.33360000     -36.22780000     -70.21820000
C      -47.38360000     -35.41010000     -69.74990000
C      -47.36840000     -34.98720000     -68.42620000
C      -46.29060000     -35.27170000     -67.60450000
H      -44.29430000     -36.13500000     -67.39890000
H      -46.33720000     -36.55570000     -71.24380000
H      -48.33830000     -34.45420000     -68.17650000
H      -46.32940000     -34.80920000     -66.62230000
C      -48.46230000     -35.07080000     -70.77080000
H      -49.41250000     -35.55290000     -70.55290000
H      -48.16760000     -35.37730000     -71.77770000
C      -44.00910000     -37.22270000     -69.97740000
H      -43.11840000     -37.15030000     -69.43030000
H      -44.38150000     -38.18400000     -70.17470000
S      -49.07230000     -33.30470000     -70.69800000
S      -43.68460000     -36.69020000     -71.81650000
C      -47.57870000     -32.36210000     -71.33060000
H      -47.19690000     -32.88550000     -72.17930000
H      -47.91550000     -31.36780000     -71.67380000
C      -43.68990000     -34.75980000     -71.68240000
H      -42.65770000     -34.49450000     -71.79850000
H      -43.99300000     -34.60400000     -70.59180000
C      -44.60320000     -34.22710000     -72.81740000
H      -44.53470000     -34.68580000     -73.75080000
H      -45.68410000     -34.50220000     -72.47880000
C      -46.38520000     -32.24330000     -70.43990000
H      -46.07580000     -33.29650000     -70.20190000
H      -46.62120000     -31.85430000     -69.42410000
C      -45.34610000     -31.31890000     -71.21230000
C      -45.14520000     -30.05240000     -70.83470000
C      -44.51390000     -31.56580000     -72.35830000
H      -45.76750000     -29.58910000     -70.05340000
C      -43.77560000     -30.44380000     -72.84800000
C      -44.20710000     -32.81920000     -73.10200000
C      -43.45330000     -32.50580000     -74.16000000
S      -44.04000000     -29.07150000     -71.89240000
S      -42.87640000     -30.82880000     -74.29270000
H      -43.07210000     -33.16100000     -74.95060000
