40
Properties=species:S:1:pos:R:3 #=T CELL(abcABC):=T 1.889726e+02=T 90.00000=T Traj:=T positionsangstrom=T Step:=T 0=T Bead:=T pbc="F F F"
C      -43.38180000     -36.24230000     -73.37250000
C      -43.35550000     -34.83760000     -73.56490000
C      -44.47710000     -34.27520000     -74.19450000
C      -45.58940000     -35.05700000     -74.44620000
C      -45.63120000     -36.41980000     -74.14760000
C      -44.50100000     -37.03080000     -73.69310000
H      -42.43340000     -36.82600000     -73.21420000
H      -44.59060000     -33.19460000     -74.27320000
H      -46.49860000     -36.96450000     -74.31870000
H      -44.40710000     -38.06870000     -73.59090000
C      -46.76240000     -34.37670000     -75.14770000
H      -47.74290000     -34.88940000     -75.00490000
H      -46.52870000     -34.20620000     -76.23620000
C      -42.16980000     -33.88470000     -73.25260000
H      -41.27990000     -34.14020000     -73.85460000
H      -42.47540000     -32.89070000     -73.47410000
S      -47.20110000     -32.55700000     -74.62240000
S      -41.48640000     -33.99710000     -71.53420000
C      -47.57500000     -32.50910000     -72.81170000
H      -47.72950000     -31.43480000     -72.60650000
H      -48.57760000     -32.97910000     -72.71020000
C      -42.85250000     -34.00970000     -70.26040000
H      -42.42060000     -34.52290000     -69.37940000
H      -43.59200000     -34.70770000     -70.62930000
C      -43.44230000     -32.58160000     -70.19560000
H      -42.66490000     -31.81810000     -70.06390000
H      -43.88310000     -32.32840000     -71.15510000
C      -46.59020000     -33.14060000     -71.80130000
H      -45.59340000     -32.81880000     -72.16560000
H      -46.60240000     -34.25120000     -71.85150000
C      -46.91740000     -32.70640000     -70.38640000
C      -48.25890000     -32.55160000     -70.02560000
C      -45.95810000     -32.43480000     -69.33160000
H      -49.17080000     -32.79410000     -70.54570000
C      -46.62730000     -32.02770000     -68.16620000
C      -44.50000000     -32.33380000     -69.21090000
C      -44.10650000     -32.04410000     -67.92990000
S      -48.35930000     -32.11700000     -68.32070000
S      -45.43830000     -31.69400000     -66.90840000
H      -43.11550000     -32.12940000     -67.55600000
