40
Properties=species:S:1:pos:R:3 #=T CELL(abcABC):=T 1.889726e+02=T 90.00000=T Traj:=T positionsangstrom=T Step:=T 0=T Bead:=T pbc="F F F"
C      -46.24810000     -35.98170000     -67.68910000
C      -45.26690000     -35.26710000     -68.40200000
C      -45.46050000     -33.91810000     -68.68540000
C      -46.64130000     -33.34370000     -68.25610000
C      -47.62880000     -34.05380000     -67.49040000
C      -47.39080000     -35.35220000     -67.26490000
H      -46.15660000     -36.98160000     -67.30270000
H      -44.69760000     -33.42980000     -69.29540000
H      -48.42320000     -33.50790000     -67.01780000
H      -48.03400000     -35.96240000     -66.61520000
C      -46.88720000     -31.81390000     -68.37520000
H      -46.00630000     -31.19250000     -68.54120000
H      -47.37890000     -31.45970000     -67.40310000
C      -43.95790000     -35.96010000     -68.85830000
H      -43.05330000     -35.60430000     -68.41940000
H      -43.98760000     -37.04460000     -68.60440000
S      -47.97210000     -31.21820000     -69.72970000
S      -43.68480000     -35.79200000     -70.71100000
C      -46.96670000     -31.34340000     -71.30910000
H      -47.14400000     -32.25090000     -71.82650000
H      -47.40840000     -30.58910000     -72.02400000
C      -45.40100000     -35.99250000     -71.48440000
H      -45.99580000     -36.35690000     -70.61520000
H      -45.48480000     -36.81590000     -72.22410000
C      -45.90800000     -34.69930000     -72.00990000
H      -47.03510000     -34.73550000     -72.10600000
H      -45.93170000     -34.03640000     -71.16310000
C      -45.47220000     -31.15900000     -71.11750000
H      -45.09960000     -31.88530000     -70.34370000
H      -45.26920000     -30.12730000     -70.73780000
C      -44.70510000     -31.49630000     -72.39470000
C      -43.90990000     -30.49950000     -72.90770000
C      -44.73320000     -32.70810000     -73.21610000
H      -43.80500000     -29.49940000     -72.49870000
C      -44.01890000     -32.44120000     -74.43220000
C      -45.37080000     -34.01780000     -73.23850000
C      -45.02720000     -34.77180000     -74.37330000
S      -43.20850000     -30.95680000     -74.47950000
S      -43.97760000     -33.87950000     -75.41780000
H      -45.38060000     -35.77850000     -74.57800000
