40
Properties=species:S:1:pos:R:3 #=T CELL(abcABC):=T 1.889726e+02=T 90.00000=T Traj:=T positionsangstrom=T Step:=T 0=T Bead:=T pbc="F F F"
C      -45.19950000     -36.09940000     -68.05130000
C      -45.21380000     -36.38660000     -69.43070000
C      -46.41010000     -36.09940000     -70.19520000
C      -47.51860000     -35.53610000     -69.60400000
C      -47.46250000     -35.22660000     -68.24450000
C      -46.35360000     -35.56750000     -67.45320000
H      -44.27960000     -36.36600000     -67.51360000
H      -46.57070000     -36.40850000     -71.22080000
H      -48.31410000     -34.61550000     -67.84480000
H      -46.37720000     -35.44850000     -66.35190000
C      -48.63860000     -35.09400000     -70.49390000
H      -49.62610000     -35.55720000     -70.22580000
H      -48.46910000     -35.42030000     -71.53620000
C      -44.05650000     -37.03130000     -70.10390000
H      -43.22620000     -36.83400000     -69.44860000
H      -44.06050000     -38.15050000     -69.81920000
S      -48.81380000     -33.23150000     -70.38990000
S      -43.64200000     -36.66710000     -71.78620000
C      -47.56140000     -32.63800000     -71.47290000
H      -47.38660000     -33.38620000     -72.34840000
H      -47.95660000     -31.72220000     -71.93430000
C      -43.70900000     -34.85380000     -71.74420000
H      -42.78090000     -34.42040000     -71.91550000
H      -44.08590000     -34.45360000     -70.81980000
C      -44.61010000     -34.20200000     -72.89860000
H      -44.50250000     -34.84290000     -73.70200000
H      -45.71090000     -34.15770000     -72.65970000
C      -46.38190000     -32.16270000     -70.59450000
H      -45.80930000     -33.00930000     -70.10820000
H      -46.77890000     -31.54760000     -69.85520000
C      -45.44200000     -31.23180000     -71.40740000
C      -45.33030000     -29.91110000     -71.09110000
C      -44.54360000     -31.59480000     -72.41440000
H      -45.95030000     -29.43820000     -70.27580000
C      -43.83960000     -30.46740000     -72.95500000
C      -44.19710000     -32.76590000     -73.18990000
C      -43.27400000     -32.57050000     -74.16130000
S      -44.15620000     -28.99910000     -72.03770000
S      -42.74950000     -30.84830000     -74.27730000
H      -42.83710000     -33.25700000     -74.81460000
