40
Properties=species:S:1:pos:R:3 #=T CELL(abcABC):=T 1.889726e+02=T 90.00000=T Traj:=T positionsangstrom=T Step:=T 0=T Bead:=T pbc="F F F"
C      -45.11030000     -36.29380000     -68.01670000
C      -45.34370000     -36.49590000     -69.37850000
C      -46.46800000     -35.96480000     -69.98190000
C      -47.39970000     -35.21960000     -69.31320000
C      -47.15070000     -34.94590000     -67.94100000
C      -46.01670000     -35.49150000     -67.30090000
H      -44.31640000     -36.83580000     -67.50580000
H      -46.57850000     -36.25120000     -71.02070000
H      -47.85980000     -34.40390000     -67.35180000
H      -45.93410000     -35.26840000     -66.27100000
C      -48.74340000     -34.77940000     -69.98270000
H      -49.50050000     -34.97830000     -69.24540000
H      -49.02670000     -35.23090000     -70.91150000
C      -44.41000000     -37.31710000     -70.15030000
H      -43.44770000     -37.41190000     -69.72200000
H      -44.78010000     -38.40080000     -70.23910000
S      -48.96470000     -32.95310000     -70.16740000
S      -44.23300000     -36.83610000     -72.03760000
C      -47.67440000     -32.35560000     -71.34250000
H      -47.63420000     -32.85770000     -72.32350000
H      -48.03650000     -31.32740000     -71.59940000
C      -44.06710000     -34.81410000     -72.08220000
H      -42.96130000     -34.64260000     -72.18340000
H      -44.39190000     -34.49440000     -71.10370000
C      -44.85800000     -34.17650000     -73.19350000
H      -44.72600000     -34.71370000     -74.17940000
H      -45.81140000     -34.01140000     -72.98380000
C      -46.21930000     -32.23560000     -70.73230000
H      -45.82360000     -33.28690000     -70.80150000
H      -46.23670000     -31.99550000     -69.65760000
C      -45.21860000     -31.32670000     -71.40830000
C      -45.04530000     -30.06340000     -71.00130000
C      -44.37240000     -31.63760000     -72.59210000
H      -45.53370000     -29.67960000     -70.11050000
C      -43.52310000     -30.54810000     -72.96520000
C      -44.21840000     -32.79350000     -73.47590000
C      -43.14430000     -32.66700000     -74.35540000
S      -43.82430000     -29.10180000     -72.02000000
S      -42.60010000     -30.96670000     -74.37600000
H      -42.87530000     -33.41720000     -75.16940000
