40
Properties=species:S:1:pos:R:3 #=T CELL(abcABC):=T 1.889726e+02=T 90.00000=T Traj:=T positionsangstrom=T Step:=T 0=T Bead:=T pbc="F F F"
C      -44.97570000     -36.33470000     -67.93970000
C      -45.26810000     -36.57810000     -69.30180000
C      -46.46960000     -36.16080000     -69.85460000
C      -47.28080000     -35.21810000     -69.26690000
C      -46.98500000     -34.97010000     -67.91050000
C      -45.94430000     -35.55440000     -67.23710000
H      -44.10080000     -36.74080000     -67.42260000
H      -46.73700000     -36.41360000     -70.87380000
H      -47.66070000     -34.28820000     -67.35490000
H      -45.79610000     -35.37870000     -66.19450000
C      -48.57950000     -34.70500000     -69.99560000
H      -49.42960000     -35.23300000     -69.50470000
H      -48.46410000     -35.14880000     -71.08580000
C      -44.33670000     -37.27020000     -70.30460000
H      -43.30470000     -36.92640000     -70.07430000
H      -44.38480000     -38.29810000     -70.19570000
S      -48.80780000     -32.90340000     -70.00480000
S      -44.60960000     -36.78540000     -72.06310000
C      -47.63940000     -32.38550000     -71.31540000
H      -47.57090000     -32.96840000     -72.21680000
H      -48.04090000     -31.39430000     -71.57100000
C      -43.81730000     -35.07730000     -72.02810000
H      -42.74570000     -35.02550000     -72.17220000
H      -44.06730000     -34.66350000     -71.03250000
C      -44.48540000     -34.27810000     -73.15480000
H      -44.34940000     -34.91100000     -74.00810000
H      -45.56600000     -34.45870000     -73.04600000
C      -46.24940000     -32.16550000     -70.66610000
H      -45.71730000     -33.12030000     -70.53430000
H      -46.39740000     -31.68090000     -69.75190000
C      -45.34070000     -31.30560000     -71.51170000
C      -45.23010000     -30.00080000     -71.24340000
C      -44.47110000     -31.66400000     -72.66260000
H      -45.58060000     -29.39300000     -70.52530000
C      -43.70800000     -30.59980000     -73.03600000
C      -44.06690000     -32.81430000     -73.41150000
C      -43.03740000     -32.55350000     -74.29730000
S      -44.05030000     -29.09430000     -72.15070000
S      -42.65380000     -30.88270000     -74.40010000
H      -42.75640000     -33.20040000     -75.15510000
