40
Properties=species:S:1:pos:R:3 #=T CELL(abcABC):=T 1.889726e+02=T 90.00000=T Traj:=T positionsangstrom=T Step:=T 0=T Bead:=T pbc="F F F"
C      -43.50630000     -35.66600000     -73.61950000
C      -43.70670000     -36.03570000     -72.26450000
C      -43.18440000     -35.21210000     -71.30000000
C      -42.23690000     -34.20880000     -71.58950000
C      -42.07850000     -33.80880000     -72.91400000
C      -42.77370000     -34.55060000     -73.93580000
H      -43.98630000     -36.21580000     -74.44460000
H      -43.32090000     -35.53240000     -70.28980000
H      -41.53450000     -32.93720000     -73.15580000
H      -42.64450000     -34.40310000     -74.99120000
C      -41.49910000     -33.39750000     -70.51370000
H      -41.44260000     -32.43900000     -71.07260000
H      -40.37210000     -33.75890000     -70.48010000
C      -44.70470000     -37.10280000     -71.91890000
H      -44.22130000     -38.05480000     -72.19760000
H      -44.85000000     -37.11490000     -70.79200000
S      -42.11020000     -33.40050000     -68.79710000
S      -46.31090000     -36.94280000     -72.80690000
C      -43.64510000     -32.45350000     -68.77120000
H      -44.10610000     -32.63490000     -67.80380000
H      -43.31190000     -31.41840000     -68.98190000
C      -47.03080000     -35.40200000     -72.16650000
H      -46.93850000     -35.51620000     -71.09920000
H      -47.99820000     -35.43730000     -72.59150000
C      -46.25620000     -34.07890000     -72.54190000
H      -45.33460000     -34.05370000     -72.01100000
H      -46.12980000     -34.15330000     -73.58420000
C      -44.70590000     -32.77650000     -69.94370000
H      -45.07370000     -33.80380000     -69.96480000
H      -44.19360000     -32.65370000     -70.84400000
C      -45.96250000     -31.99800000     -69.88620000
C      -46.31780000     -30.98680000     -69.03900000
C      -46.87830000     -32.04850000     -70.98940000
H      -45.92770000     -30.71580000     -68.03920000
C      -47.72820000     -30.90500000     -71.03100000
C      -47.03860000     -32.86690000     -72.15430000
C      -48.08130000     -32.47100000     -72.94350000
S      -47.57290000     -29.92240000     -69.57750000
S      -48.79480000     -30.94480000     -72.37610000
H      -48.51790000     -32.94700000     -73.80710000
