40
Properties=species:S:1:pos:R:3 #=T CELL(abcABC):=T 1.889726e+02=T 90.00000=T Traj:=T positionsangstrom=T Step:=T 0=T Bead:=T pbc="F F F"
C      -46.56590000     -36.20550000     -69.03520000
C      -45.48650000     -35.35900000     -68.72110000
C      -45.87400000     -34.10150000     -68.19050000
C      -47.20670000     -33.64950000     -68.23100000
C      -48.21050000     -34.49440000     -68.61360000
C      -47.86490000     -35.78120000     -68.96980000
H      -46.35140000     -37.23930000     -69.24880000
H      -45.09970000     -33.44500000     -67.91810000
H      -49.25950000     -34.31350000     -68.53600000
H      -48.67730000     -36.46280000     -69.19780000
C      -47.35100000     -32.29990000     -67.61760000
H      -46.58430000     -31.96610000     -66.97120000
H      -48.29460000     -32.20130000     -67.04250000
C      -44.10740000     -35.78390000     -68.86920000
H      -43.48670000     -35.47240000     -68.16740000
H      -43.99760000     -36.84830000     -69.05090000
S      -47.42510000     -30.99140000     -69.00030000
S      -43.30750000     -35.12190000     -70.42780000
C      -46.25820000     -31.67390000     -70.20770000
H      -45.45270000     -30.91570000     -70.36570000
H      -45.70460000     -32.41920000     -69.68460000
C      -44.19620000     -36.18760000     -71.74770000
H      -44.67540000     -36.90910000     -71.07680000
H      -43.38630000     -36.56810000     -72.36820000
C      -45.25130000     -35.31950000     -72.39080000
H      -45.96420000     -35.69590000     -73.01850000
H      -45.76010000     -34.86910000     -71.55540000
C      -46.73570000     -32.15430000     -71.55350000
H      -47.71680000     -31.79800000     -71.85090000
H      -46.80180000     -33.21280000     -71.51630000
C      -45.70850000     -31.80280000     -72.64540000
C      -45.48230000     -30.53940000     -73.14130000
C      -44.84540000     -32.80990000     -73.27070000
H      -45.86830000     -29.62870000     -72.74560000
C      -44.04140000     -32.23790000     -74.28020000
C      -44.62680000     -34.28750000     -73.32600000
C      -43.70480000     -34.70000000     -74.27270000
S      -44.18970000     -30.48250000     -74.33940000
S      -42.97340000     -33.27710000     -75.11920000
H      -43.28660000     -35.64670000     -74.52130000
