40
Properties=species:S:1:pos:R:3 #=T CELL(abcABC):=T 1.889726e+02=T 90.00000=T Traj:=T positionsangstrom=T Step:=T 0=T Bead:=T pbc="F F F"
C      -45.16390000     -35.91440000     -68.30650000
C      -45.47880000     -36.27890000     -69.61910000
C      -46.67360000     -35.87840000     -70.18760000
C      -47.64030000     -35.20720000     -69.38970000
C      -47.40810000     -35.04960000     -68.01640000
C      -46.10930000     -35.34090000     -67.44270000
H      -44.11330000     -36.07120000     -68.08950000
H      -46.92410000     -36.11080000     -71.22430000
H      -48.13750000     -34.57770000     -67.37890000
H      -45.87230000     -35.13640000     -66.35960000
C      -48.86680000     -34.70080000     -70.12200000
H      -49.89210000     -34.89390000     -69.67410000
H      -48.81340000     -35.16340000     -71.06600000
C      -44.39260000     -37.10780000     -70.24890000
H      -43.58330000     -37.11630000     -69.55090000
H      -44.66220000     -38.19900000     -70.37090000
S      -48.88220000     -32.85630000     -70.30790000
S      -43.86080000     -36.69960000     -71.95210000
C      -47.48440000     -32.47200000     -71.49260000
H      -47.26090000     -33.27380000     -72.21640000
H      -47.80650000     -31.59000000     -72.01120000
C      -43.83980000     -34.91170000     -71.85070000
H      -42.79320000     -34.57420000     -71.98860000
H      -44.19200000     -34.60520000     -70.88990000
C      -44.73460000     -34.29920000     -73.00920000
H      -44.71210000     -35.06440000     -73.89090000
H      -45.73450000     -34.37480000     -72.58760000
C      -46.20470000     -32.25970000     -70.60530000
H      -45.75710000     -33.20690000     -70.37650000
H      -46.46810000     -31.82950000     -69.60790000
C      -45.14930000     -31.41960000     -71.27600000
C      -44.97910000     -30.13090000     -70.95410000
C      -44.44970000     -31.78840000     -72.46740000
H      -45.59860000     -29.62770000     -70.16020000
C      -43.66890000     -30.67100000     -72.89430000
C      -44.33980000     -32.87320000     -73.35280000
C      -43.39210000     -32.68730000     -74.36020000
S      -43.77280000     -29.26520000     -71.90450000
S      -42.73960000     -31.10030000     -74.28730000
H      -42.99070000     -33.38360000     -75.13490000
