40
Properties=species:S:1:pos:R:3 #=T CELL(abcABC):=T 1.889726e+02=T 90.00000=T Traj:=T positionsangstrom=T Step:=T 0=T Bead:=T pbc="F F F"
C      -44.21080000     -35.97740000     -68.32380000
C      -44.94290000     -36.49850000     -69.46190000
C      -46.25790000     -36.00900000     -69.63210000
C      -46.92280000     -35.03140000     -68.85750000
C      -46.14180000     -34.52340000     -67.70920000
C      -44.80470000     -34.99150000     -67.50730000
H      -43.14590000     -36.05060000     -68.23390000
H      -46.77680000     -36.43370000     -70.48070000
H      -46.59710000     -33.82840000     -67.10040000
H      -44.17360000     -34.65320000     -66.76190000
C      -48.31940000     -34.68700000     -69.19770000
H      -48.95210000     -35.16820000     -68.50920000
H      -48.52060000     -35.24810000     -70.12550000
C      -44.26120000     -37.48130000     -70.45380000
H      -43.19180000     -37.52970000     -70.16740000
H      -44.52140000     -38.48690000     -70.31340000
S      -48.68900000     -32.89670000     -69.34520000
S      -44.31920000     -36.94480000     -72.19350000
C      -47.83300000     -32.36450000     -70.90170000
H      -48.11570000     -33.04320000     -71.69210000
H      -48.15910000     -31.32750000     -71.03650000
C      -43.96910000     -35.12120000     -71.97500000
H      -42.88020000     -34.91300000     -72.10480000
H      -44.24410000     -34.81490000     -71.00000000
C      -44.70120000     -34.33580000     -73.10700000
H      -44.34240000     -34.98370000     -74.02370000
H      -45.83900000     -34.45010000     -73.12920000
C      -46.31180000     -32.44100000     -70.67020000
H      -45.90780000     -33.45660000     -70.78420000
H      -46.00590000     -32.12940000     -69.68810000
C      -45.54960000     -31.50090000     -71.60640000
C      -45.61330000     -30.13850000     -71.39000000
C      -44.75580000     -31.73360000     -72.82340000
H      -46.11540000     -29.63820000     -70.45160000
C      -44.15860000     -30.61400000     -73.36230000
C      -44.23870000     -32.93600000     -73.35710000
C      -43.43920000     -32.64620000     -74.44510000
S      -44.66230000     -29.07090000     -72.57810000
S      -43.06340000     -30.97070000     -74.69590000
H      -43.01940000     -33.38050000     -75.19330000
