40
Properties=species:S:1:pos:R:3 #=T CELL(abcABC):=T 1.889726e+02=T 90.00000=T Traj:=T positionsangstrom=T Step:=T 0=T Bead:=T pbc="F F F"
C      -46.60820000     -36.60700000     -69.09700000
C      -45.57770000     -35.76350000     -68.63560000
C      -45.90250000     -34.49800000     -68.17980000
C      -47.21480000     -34.00820000     -68.18410000
C      -48.18590000     -34.89020000     -68.56770000
C      -47.93270000     -36.17680000     -69.08780000
H      -46.49630000     -37.62480000     -69.43150000
H      -45.10600000     -33.86040000     -67.90490000
H      -49.17950000     -34.54570000     -68.42940000
H      -48.69990000     -36.85200000     -69.38940000
C      -47.53880000     -32.57260000     -67.72340000
H      -47.00150000     -32.30060000     -66.83240000
H      -48.61950000     -32.43220000     -67.49810000
C      -44.11680000     -36.26140000     -68.65890000
H      -43.59670000     -35.75510000     -67.87890000
H      -43.93340000     -37.39470000     -68.69870000
S      -47.21870000     -31.14030000     -68.95040000
S      -43.17020000     -35.59870000     -70.21970000
C      -45.98910000     -31.70330000     -70.23310000
H      -45.01210000     -31.07680000     -70.06530000
H      -45.66190000     -32.70740000     -69.95940000
C      -44.42350000     -36.05920000     -71.51550000
H      -45.16710000     -36.63460000     -71.05990000
H      -44.04150000     -36.57270000     -72.43930000
C      -45.13410000     -34.78330000     -72.06930000
H      -46.16820000     -34.99260000     -72.48780000
H      -45.39710000     -34.14320000     -71.18610000
C      -46.66620000     -31.66330000     -71.65270000
H      -47.37640000     -30.73970000     -71.64150000
H      -47.23400000     -32.55430000     -71.77740000
C      -45.67400000     -31.47080000     -72.81460000
C      -45.65040000     -30.24170000     -73.51530000
C      -44.81810000     -32.46710000     -73.34480000
H      -46.30470000     -29.43820000     -73.31490000
C      -44.17740000     -31.94940000     -74.44280000
C      -44.41990000     -33.82300000     -73.01310000
C      -43.41850000     -34.19230000     -73.91350000
S      -44.54350000     -30.33620000     -74.84420000
S      -42.93600000     -32.91830000     -75.06690000
H      -43.05700000     -35.20550000     -73.84080000
