40
Properties=species:S:1:pos:R:3 #=T CELL(abcABC):=T 1.889726e+02=T 90.00000=T Traj:=T positionsangstrom=T Step:=T 0=T Bead:=T pbc="F F F"
C      -46.56960000     -36.34470000     -69.09810000
C      -45.49400000     -35.48850000     -68.66590000
C      -45.85670000     -34.21390000     -68.20090000
C      -47.19100000     -33.80920000     -68.19440000
C      -48.21550000     -34.72840000     -68.49780000
C      -47.86930000     -35.96650000     -68.95350000
H      -46.41430000     -37.31880000     -69.57780000
H      -45.06370000     -33.57190000     -67.82570000
H      -49.26160000     -34.45860000     -68.45280000
H      -48.60040000     -36.65780000     -69.40500000
C      -47.44790000     -32.33280000     -67.79890000
H      -46.84270000     -32.11080000     -66.88360000
H      -48.51580000     -32.29520000     -67.51480000
C      -44.04510000     -35.94140000     -68.81430000
H      -43.51000000     -35.65390000     -67.92420000
H      -44.04600000     -37.07170000     -68.81060000
S      -47.20820000     -31.02070000     -69.01550000
S      -43.32660000     -35.16430000     -70.28650000
C      -45.95490000     -31.47520000     -70.27450000
H      -45.34210000     -30.57450000     -70.51830000
H      -45.31140000     -32.27640000     -69.80400000
C      -44.24670000     -35.96670000     -71.61990000
H      -44.73180000     -36.90940000     -71.23060000
H      -43.52530000     -36.29330000     -72.34900000
C      -45.33740000     -35.20560000     -72.42360000
H      -45.92900000     -36.00120000     -72.97140000
H      -45.99460000     -34.73380000     -71.62050000
C      -46.66820000     -32.00220000     -71.52760000
H      -47.63400000     -31.42480000     -71.52310000
H      -47.01300000     -33.09120000     -71.47540000
C      -45.76730000     -31.81570000     -72.75270000
C      -45.62900000     -30.49310000     -73.15650000
C      -44.90150000     -32.80290000     -73.41200000
H      -46.12850000     -29.67980000     -72.66460000
C      -44.05010000     -32.15180000     -74.30280000
C      -44.68660000     -34.24350000     -73.36650000
C      -43.66610000     -34.59150000     -74.26040000
S      -44.34570000     -30.38190000     -74.35100000
S      -42.96630000     -33.23460000     -75.14180000
H      -43.11150000     -35.54720000     -74.39430000
