40
Properties=species:S:1:pos:R:3 #=T CELL(abcABC):=T 1.889726e+02=T 90.00000=T Traj:=T positionsangstrom=T Step:=T 0=T Bead:=T pbc="F F F"
C      -43.55450000     -35.51930000     -68.07680000
C      -44.25110000     -36.04530000     -69.16060000
C      -45.64010000     -35.90810000     -69.20210000
C      -46.29010000     -35.17010000     -68.30650000
C      -45.56890000     -34.57590000     -67.21160000
C      -44.22240000     -34.80700000     -67.10510000
H      -42.49350000     -35.79550000     -67.91910000
H      -46.17090000     -36.29820000     -70.01150000
H      -46.09640000     -34.02170000     -66.40710000
H      -43.75160000     -34.34060000     -66.25970000
C      -47.72290000     -34.77550000     -68.36610000
H      -48.07940000     -34.89190000     -67.39850000
H      -48.41970000     -35.40110000     -68.95710000
C      -43.52430000     -36.89950000     -70.16720000
H      -42.43090000     -36.84230000     -70.17330000
H      -43.62690000     -37.95990000     -70.00520000
S      -48.02310000     -33.01770000     -68.79060000
S      -44.13960000     -36.78030000     -71.92820000
C      -47.28120000     -32.83920000     -70.54950000
H      -47.34210000     -33.82470000     -71.01170000
H      -48.06210000     -32.30940000     -71.07710000
C      -43.89620000     -34.96600000     -72.33660000
H      -42.94990000     -34.74600000     -72.80220000
H      -43.93040000     -34.29690000     -71.45680000
C      -45.08960000     -34.47770000     -73.13430000
H      -45.39510000     -35.20430000     -73.91720000
H      -45.87900000     -34.43620000     -72.34280000
C      -45.96870000     -32.13160000     -70.51560000
H      -45.10280000     -32.80230000     -70.26730000
H      -45.95810000     -31.51740000     -69.66040000
C      -45.65890000     -31.37950000     -71.76940000
C      -45.84190000     -30.03280000     -71.74950000
C      -45.15630000     -31.85920000     -73.07150000
H      -46.05400000     -29.35680000     -70.95470000
C      -44.88330000     -30.73470000     -73.94050000
C      -44.86700000     -33.10200000     -73.71820000
C      -44.39350000     -32.92020000     -74.99280000
S      -45.30930000     -29.24040000     -73.23460000
S      -44.38940000     -31.23240000     -75.52900000
H      -44.12860000     -33.73510000     -75.64390000
