40
Properties=species:S:1:pos:R:3 #=T CELL(abcABC):=T 1.889726e+02=T 90.00000=T Traj:=T positionsangstrom=T Step:=T 0=T Bead:=T pbc="F F F"
C      -43.58320000     -35.61510000     -68.09000000
C      -44.31880000     -36.10650000     -69.19880000
C      -45.65490000     -35.85420000     -69.26480000
C      -46.32930000     -35.10410000     -68.32410000
C      -45.61790000     -34.71850000     -67.14040000
C      -44.22490000     -34.86570000     -67.08180000
H      -42.54690000     -35.58150000     -68.02500000
H      -46.13300000     -36.18540000     -70.14000000
H      -46.01780000     -34.00220000     -66.38800000
H      -43.58980000     -34.36150000     -66.33710000
C      -47.81440000     -34.81970000     -68.46480000
H      -48.33990000     -35.01120000     -67.43560000
H      -48.21320000     -35.37790000     -69.33330000
C      -43.59040000     -36.98760000     -70.29590000
H      -42.51250000     -36.77520000     -70.20650000
H      -43.73730000     -38.04850000     -69.92600000
S      -48.12020000     -33.02870000     -68.86500000
S      -44.16130000     -36.81030000     -71.98840000
C      -47.32050000     -32.95650000     -70.52960000
H      -47.11540000     -33.99790000     -70.87650000
H      -48.01420000     -32.51920000     -71.29820000
C      -43.95160000     -35.01340000     -72.21900000
H      -43.01910000     -34.97290000     -72.85860000
H      -43.69370000     -34.56740000     -71.27010000
C      -45.13950000     -34.43120000     -73.05630000
H      -45.27510000     -35.08600000     -73.92570000
H      -46.04790000     -34.48750000     -72.49600000
C      -45.97360000     -32.19940000     -70.56000000
H      -45.15740000     -32.92890000     -70.41720000
H      -46.04780000     -31.52870000     -69.67170000
C      -45.60020000     -31.23980000     -71.72440000
C      -45.72460000     -29.88100000     -71.74350000
C      -45.12500000     -31.77200000     -72.96930000
H      -46.00610000     -29.21920000     -70.99510000
C      -44.85520000     -30.73700000     -73.87920000
C      -44.89740000     -33.04260000     -73.61000000
C      -44.48100000     -32.90710000     -74.90560000
S      -45.20840000     -29.15550000     -73.31990000
S      -44.23290000     -31.21860000     -75.39940000
H      -44.14660000     -33.67340000     -75.55910000
