40
Properties=species:S:1:pos:R:3 #=T CELL(abcABC):=T 1.889726e+02=T 90.00000=T Traj:=T positionsangstrom=T Step:=T 0=T Bead:=T pbc="F F F"
C      -43.90710000     -35.55650000     -68.06680000
C      -44.53070000     -36.16400000     -69.16300000
C      -45.89050000     -35.82380000     -69.54620000
C      -46.58570000     -34.82790000     -68.83390000
C      -45.96010000     -34.29870000     -67.68750000
C      -44.64020000     -34.56400000     -67.34530000
H      -42.87250000     -35.85950000     -67.84360000
H      -46.36030000     -36.22940000     -70.50900000
H      -46.40970000     -33.54100000     -67.13080000
H      -44.21350000     -34.11260000     -66.47060000
C      -47.98950000     -34.55900000     -69.08860000
H      -48.68410000     -35.05930000     -68.48370000
H      -48.19420000     -34.87300000     -70.11620000
C      -43.73510000     -37.10250000     -69.96490000
H      -42.69050000     -36.92800000     -69.69620000
H      -43.88150000     -38.16520000     -69.79950000
S      -48.44240000     -32.75370000     -68.99950000
S      -43.81150000     -36.90340000     -71.86130000
C      -47.69480000     -32.09380000     -70.54120000
H      -48.15840000     -32.66180000     -71.30530000
H      -48.05700000     -31.07780000     -70.68310000
C      -43.73850000     -35.08840000     -72.12340000
H      -42.90470000     -34.77350000     -72.77530000
H      -43.58410000     -34.64350000     -71.12430000
C      -45.04370000     -34.64120000     -72.79650000
H      -45.49210000     -35.37300000     -73.44530000
H      -45.79360000     -34.47820000     -72.06720000
C      -46.13200000     -32.26770000     -70.58680000
H      -45.82240000     -33.34010000     -70.65980000
H      -45.68110000     -31.88220000     -69.62810000
C      -45.48910000     -31.44710000     -71.66640000
C      -45.37870000     -30.06980000     -71.65570000
C      -44.87940000     -31.97170000     -72.83700000
H      -45.68660000     -29.43130000     -70.84010000
C      -44.62210000     -30.94760000     -73.73950000
C      -44.75700000     -33.26150000     -73.49850000
C      -44.50250000     -33.11120000     -74.80210000
S      -44.70010000     -29.34060000     -73.02690000
S      -44.18290000     -31.44960000     -75.32250000
H      -44.57780000     -33.86900000     -75.56250000
