40
Properties=species:S:1:pos:R:3 #=T CELL(abcABC):=T 1.889726e+02=T 90.00000=T Traj:=T positionsangstrom=T Step:=T 0=T Bead:=T pbc="F F F"
C      -43.88690000     -35.48730000     -68.07840000
C      -44.49510000     -36.08300000     -69.20500000
C      -45.75950000     -35.74120000     -69.56000000
C      -46.49420000     -34.90160000     -68.70070000
C      -45.96050000     -34.41770000     -67.50390000
C      -44.59870000     -34.71860000     -67.22400000
H      -42.79240000     -35.72970000     -67.92200000
H      -46.15280000     -36.18170000     -70.51740000
H      -46.66730000     -33.93790000     -66.84570000
H      -44.10700000     -34.24890000     -66.32090000
C      -48.00190000     -34.59190000     -69.14620000
H      -48.62320000     -35.21660000     -68.40800000
H      -48.23800000     -34.96470000     -70.16620000
C      -43.71870000     -37.05120000     -70.07740000
H      -42.61810000     -36.98740000     -69.87130000
H      -44.11570000     -38.03310000     -69.93010000
S      -48.45020000     -32.84800000     -68.87120000
S      -43.71960000     -36.84440000     -71.90820000
C      -47.69550000     -31.92900000     -70.31030000
H      -48.20990000     -32.31720000     -71.23750000
H      -47.81610000     -30.83240000     -70.21150000
C      -43.65010000     -35.07520000     -72.17810000
H      -42.82500000     -34.86610000     -72.84550000
H      -43.44920000     -34.61380000     -71.19070000
C      -45.01820000     -34.64020000     -72.87850000
H      -45.03710000     -35.39050000     -73.70800000
H      -45.86710000     -34.76440000     -72.16560000
C      -46.11780000     -32.19900000     -70.55850000
H      -45.93990000     -33.22600000     -70.71120000
H      -45.62360000     -31.80290000     -69.65900000
C      -45.57820000     -31.37260000     -71.70530000
C      -45.49350000     -30.01590000     -71.62010000
C      -45.16890000     -31.92790000     -72.99450000
H      -46.01360000     -29.44120000     -70.81700000
C      -44.83750000     -30.93010000     -73.83430000
C      -44.80350000     -33.27180000     -73.55380000
C      -44.31570000     -33.17080000     -74.79060000
S      -44.83360000     -29.35290000     -73.12030000
S      -44.11660000     -31.49490000     -75.32540000
H      -44.10750000     -34.02290000     -75.42230000
