40
Properties=species:S:1:pos:R:3 #=T CELL(abcABC):=T 1.889726e+02=T 90.00000=T Traj:=T positionsangstrom=T Step:=T 0=T Bead:=T pbc="F F F"
C      -43.46390000     -35.37760000     -68.02790000
C      -44.17770000     -35.97570000     -69.14330000
C      -45.57820000     -35.86000000     -69.18920000
C      -46.21300000     -35.02250000     -68.26620000
C      -45.49170000     -34.46500000     -67.19600000
C      -44.08560000     -34.65760000     -67.04670000
H      -42.37840000     -35.50050000     -68.15990000
H      -46.30000000     -36.29560000     -69.93770000
H      -45.99370000     -33.83530000     -66.50330000
H      -43.60120000     -34.24870000     -66.17580000
C      -47.66920000     -34.77760000     -68.39260000
H      -48.13070000     -35.01920000     -67.45270000
H      -48.10120000     -35.36360000     -69.23890000
C      -43.38180000     -36.83580000     -70.09300000
H      -42.35050000     -36.36760000     -70.08130000
H      -43.39770000     -37.87140000     -69.79170000
S      -48.06760000     -32.92940000     -68.85590000
S      -44.14900000     -36.76810000     -71.78800000
C      -47.31100000     -32.69530000     -70.52480000
H      -47.48580000     -33.53680000     -71.18330000
H      -47.79280000     -31.80170000     -70.85240000
C      -43.89610000     -35.00890000     -72.25640000
H      -42.99940000     -35.00770000     -72.88370000
H      -43.70520000     -34.40860000     -71.31710000
C      -45.10300000     -34.51830000     -73.05310000
H      -45.17160000     -35.21860000     -73.84000000
H      -46.01700000     -34.58850000     -72.50330000
C      -45.76360000     -32.31720000     -70.59890000
H      -45.20320000     -33.31220000     -70.78410000
H      -45.35480000     -31.80190000     -69.70800000
C      -45.53490000     -31.46030000     -71.82000000
C      -45.69960000     -30.13100000     -71.68160000
C      -45.21620000     -31.89200000     -73.15350000
H      -46.08290000     -29.56870000     -70.81150000
C      -45.02910000     -30.79920000     -74.04590000
C      -44.99660000     -33.13780000     -73.78640000
C      -44.54260000     -33.04770000     -75.09250000
S      -45.50690000     -29.28600000     -73.21040000
S      -44.42660000     -31.35550000     -75.60540000
H      -44.44600000     -33.81670000     -75.82910000
