40
Properties=species:S:1:pos:R:3 #=T CELL(abcABC):=T 1.889726e+02=T 90.00000=T Traj:=T positionsangstrom=T Step:=T 0=T Bead:=T pbc="F F F"
C      -46.23130000     -36.29300000     -68.61470000
C      -45.14570000     -35.41450000     -68.50530000
C      -45.33190000     -34.06140000     -68.28370000
C      -46.69330000     -33.60130000     -68.17960000
C      -47.76120000     -34.49520000     -68.18580000
C      -47.54700000     -35.83030000     -68.45950000
H      -46.00050000     -37.34290000     -68.82180000
H      -44.48720000     -33.42330000     -68.08630000
H      -48.76860000     -34.15610000     -68.09370000
H      -48.40780000     -36.46790000     -68.66040000
C      -46.84170000     -32.10480000     -67.91520000
H      -45.84240000     -31.75980000     -67.67630000
H      -47.34990000     -31.92510000     -66.96630000
C      -43.76990000     -36.07450000     -68.67720000
H      -43.02160000     -35.58060000     -68.07670000
H      -43.67850000     -37.14980000     -68.40540000
S      -47.59780000     -31.11970000     -69.25440000
S      -43.09250000     -35.96960000     -70.46490000
C      -46.58970000     -31.21140000     -70.78250000
H      -46.69640000     -30.24790000     -71.32450000
H      -45.57420000     -31.43790000     -70.65870000
C      -44.54870000     -36.09980000     -71.58260000
H      -45.28490000     -36.74450000     -71.12570000
H      -44.22220000     -36.70900000     -72.44480000
C      -45.18890000     -34.77750000     -71.89190000
H      -46.27280000     -34.92920000     -72.12480000
H      -45.37130000     -34.17310000     -70.94620000
C      -47.22500000     -32.07480000     -71.88000000
H      -48.17210000     -31.58060000     -72.05970000
H      -47.41040000     -33.15670000     -71.68130000
C      -46.21600000     -31.85780000     -73.08420000
C      -46.22120000     -30.74940000     -73.90070000
C      -45.03590000     -32.64110000     -73.36920000
H      -47.05700000     -30.11260000     -73.95490000
C      -44.25160000     -32.11740000     -74.36170000
C      -44.40510000     -33.83120000     -72.77800000
C      -43.15990000     -34.08260000     -73.33110000
S      -44.86600000     -30.63470000     -75.01690000
S      -42.85290000     -33.04260000     -74.65280000
H      -42.54020000     -34.94500000     -73.25630000
