40
Properties=species:S:1:pos:R:3 #=T CELL(abcABC):=T 1.889726e+02=T 90.00000=T Traj:=T positionsangstrom=T Step:=T 0=T Bead:=T pbc="F F F"
C      -42.84840000     -34.28800000     -68.40220000
C      -43.53850000     -35.23020000     -69.09220000
C      -44.97690000     -35.28490000     -68.96280000
C      -45.65610000     -34.42540000     -68.13430000
C      -44.93680000     -33.43850000     -67.40380000
C      -43.52280000     -33.31920000     -67.62290000
H      -41.78180000     -34.27640000     -68.59110000
H      -45.50110000     -36.05310000     -69.61770000
H      -45.53060000     -32.87990000     -66.66820000
H      -43.01910000     -32.65560000     -66.94650000
C      -47.17440000     -34.63440000     -68.01060000
H      -47.44290000     -34.76610000     -66.94320000
H      -47.41760000     -35.52960000     -68.48390000
C      -42.82200000     -36.30970000     -69.88110000
H      -41.78100000     -36.16410000     -70.02330000
H      -42.92180000     -37.21670000     -69.34520000
S      -47.92500000     -33.02150000     -68.64340000
S      -43.39930000     -36.80650000     -71.51400000
C      -47.28260000     -32.83240000     -70.32930000
H      -47.13210000     -33.80200000     -70.81140000
H      -48.15260000     -32.32400000     -70.91870000
C      -43.61050000     -35.23990000     -72.43430000
H      -43.41770000     -35.39310000     -73.46200000
H      -42.83300000     -34.57030000     -72.14870000
C      -44.97260000     -34.61660000     -72.28790000
H      -45.84390000     -35.32360000     -72.29150000
H      -45.00000000     -34.16700000     -71.26420000
C      -46.10890000     -31.87910000     -70.49250000
H      -45.19380000     -32.47780000     -70.26020000
H      -46.28590000     -31.03960000     -69.82920000
C      -46.07740000     -31.42400000     -71.93510000
C      -46.21140000     -30.09990000     -72.25270000
C      -45.74780000     -32.25250000     -73.10580000
H      -46.46240000     -29.27840000     -71.59130000
C      -45.95770000     -31.51140000     -74.24550000
C      -45.16860000     -33.55740000     -73.32830000
C      -44.96570000     -33.76550000     -74.67520000
S      -46.21010000     -29.77930000     -74.01270000
S      -45.33540000     -32.33630000     -75.66470000
H      -44.66130000     -34.71980000     -75.11860000
