40
Properties=species:S:1:pos:R:3 #=T CELL(abcABC):=T 1.889726e+02=T 90.00000=T Traj:=T positionsangstrom=T Step:=T 0=T Bead:=T pbc="F F F"
C      -43.00200000     -34.25110000     -68.55480000
C      -43.69340000     -35.35210000     -69.07340000
C      -45.08160000     -35.43250000     -68.91490000
C      -45.81780000     -34.50430000     -68.14590000
C      -45.05770000     -33.46880000     -67.50970000
C      -43.69590000     -33.32280000     -67.77040000
H      -41.90800000     -34.17900000     -68.69750000
H      -45.65050000     -36.33120000     -69.34170000
H      -45.69920000     -32.76770000     -67.06100000
H      -43.19560000     -32.44580000     -67.41610000
C      -47.29220000     -34.50700000     -67.99340000
H      -47.64400000     -34.63040000     -66.94400000
H      -47.72350000     -35.34910000     -68.56280000
C      -42.85040000     -36.40180000     -69.82700000
H      -41.81260000     -35.89940000     -69.71840000
H      -42.84050000     -37.31710000     -69.20160000
S      -48.16080000     -32.96620000     -68.62080000
S      -43.25500000     -36.80790000     -71.62000000
C      -47.41000000     -32.80570000     -70.37340000
H      -47.13350000     -33.74230000     -70.67080000
H      -48.23950000     -32.46890000     -70.99340000
C      -43.55240000     -35.18590000     -72.42060000
H      -43.24070000     -35.48810000     -73.46100000
H      -42.86450000     -34.38410000     -72.02310000
C      -45.01020000     -34.71640000     -72.42040000
H      -45.57260000     -35.58970000     -72.75470000
H      -45.29260000     -34.42300000     -71.40130000
C      -46.14080000     -31.95500000     -70.44170000
H      -45.29990000     -32.60460000     -70.12850000
H      -45.98300000     -31.07730000     -69.79460000
C      -45.90740000     -31.44570000     -71.86900000
C      -45.99320000     -30.10810000     -72.10510000
C      -45.57720000     -32.22240000     -73.08800000
H      -46.38080000     -29.40060000     -71.40820000
C      -45.66920000     -31.40640000     -74.19470000
C      -45.17210000     -33.58360000     -73.41480000
C      -45.09450000     -33.83020000     -74.76380000
S      -45.88370000     -29.68950000     -73.83090000
S      -45.37690000     -32.32620000     -75.64270000
H      -44.82180000     -34.77150000     -75.17930000
