40
Properties=species:S:1:pos:R:3 #=T CELL(abcABC):=T 1.889726e+02=T 90.00000=T Traj:=T positionsangstrom=T Step:=T 0=T Bead:=T pbc="F F F"
C      -45.71680000     -36.52580000     -67.95550000
C      -44.82650000     -35.59890000     -68.52070000
C      -45.09930000     -34.25390000     -68.34550000
C      -46.24630000     -33.78830000     -67.65010000
C      -47.01960000     -34.72200000     -66.99720000
C      -46.79490000     -36.11690000     -67.13610000
H      -45.50640000     -37.57310000     -68.18440000
H      -44.44660000     -33.50080000     -68.82130000
H      -47.76270000     -34.39240000     -66.34410000
H      -47.38120000     -36.80770000     -66.62830000
C      -46.67780000     -32.27900000     -67.65430000
H      -45.75250000     -31.69260000     -67.74910000
H      -47.30500000     -31.94340000     -66.76000000
C      -43.69580000     -35.96950000     -69.40960000
H      -42.71170000     -35.47750000     -68.99660000
H      -43.57100000     -37.01250000     -69.44180000
S      -47.59230000     -31.84470000     -69.24530000
S      -43.84980000     -35.17660000     -71.10840000
C      -46.34550000     -31.51200000     -70.47980000
H      -45.76530000     -30.58590000     -70.32000000
H      -45.54490000     -32.30340000     -70.38390000
C      -45.52140000     -35.67500000     -71.71710000
H      -46.14610000     -35.92630000     -70.80360000
H      -45.39370000     -36.60820000     -72.27960000
C      -46.27570000     -34.65690000     -72.54950000
H      -47.08000000     -35.24860000     -73.04080000
H      -46.84750000     -33.96730000     -71.86700000
C      -46.86380000     -31.34640000     -71.91720000
H      -47.37400000     -30.41390000     -72.01090000
H      -47.58630000     -32.05710000     -72.28780000
C      -45.75190000     -31.30020000     -72.90710000
C      -45.15000000     -30.09340000     -73.27340000
C      -45.26770000     -32.45960000     -73.55940000
H      -45.29790000     -29.11600000     -72.77640000
C      -44.17650000     -32.09730000     -74.41090000
C      -45.34400000     -33.93700000     -73.48170000
C      -44.50250000     -34.65090000     -74.29600000
S      -43.75410000     -30.43090000     -74.30020000
S      -43.55490000     -33.48670000     -75.34750000
H      -44.38920000     -35.72570000     -74.31920000
