40
Properties=species:S:1:pos:R:3 #=T CELL(abcABC):=T 1.889726e+02=T 90.00000=T Traj:=T positionsangstrom=T Step:=T 0=T Bead:=T pbc="F F F"
C      -43.07080000     -34.39450000     -68.41790000
C      -43.72560000     -35.48180000     -69.01570000
C      -45.11480000     -35.59020000     -68.96540000
C      -45.85410000     -34.56240000     -68.31100000
C      -45.18530000     -33.50800000     -67.66690000
C      -43.77600000     -33.40250000     -67.63540000
H      -41.98140000     -34.15760000     -68.49080000
H      -45.64900000     -36.52320000     -69.30740000
H      -45.65340000     -32.59790000     -67.33720000
H      -43.24990000     -32.60670000     -67.15560000
C      -47.35490000     -34.66790000     -68.35200000
H      -47.81790000     -34.82400000     -67.32250000
H      -47.64340000     -35.48280000     -68.96290000
C      -42.87600000     -36.45040000     -69.84760000
H      -41.91790000     -36.02120000     -69.88480000
H      -42.77520000     -37.35340000     -69.21900000
S      -48.38970000     -33.21490000     -68.91670000
S      -43.73200000     -36.75330000     -71.38770000
C      -47.71430000     -32.64270000     -70.46800000
H      -47.91620000     -33.33660000     -71.22620000
H      -48.27610000     -31.69980000     -70.76130000
C      -43.83260000     -35.12160000     -72.31550000
H      -43.12680000     -35.17810000     -73.19250000
H      -43.44280000     -34.35070000     -71.61120000
C      -45.30860000     -34.81460000     -72.71080000
H      -45.59160000     -35.63860000     -73.32450000
H      -45.91840000     -34.70700000     -71.87390000
C      -46.21620000     -32.19660000     -70.52600000
H      -45.44690000     -33.00780000     -70.28950000
H      -46.15190000     -31.43580000     -69.73820000
C      -45.84550000     -31.50540000     -71.83860000
C      -45.79360000     -30.14440000     -71.92940000
C      -45.42340000     -32.17280000     -73.01710000
H      -46.23030000     -29.39690000     -71.26170000
C      -45.22870000     -31.25700000     -74.06730000
C      -45.27960000     -33.54530000     -73.51190000
C      -45.03540000     -33.58900000     -74.85950000
S      -45.41580000     -29.58680000     -73.55500000
S      -44.83220000     -32.03130000     -75.58700000
H      -44.91390000     -34.50710000     -75.47210000
