40
Properties=species:S:1:pos:R:3 #=T CELL(abcABC):=T 1.889726e+02=T 90.00000=T Traj:=T positionsangstrom=T Step:=T 0=T Bead:=T pbc="F F F"
C      -42.46670000     -33.88250000     -69.27770000
C      -43.30020000     -34.98720000     -69.09170000
C      -44.57150000     -34.92260000     -68.52630000
C      -45.02260000     -33.69510000     -68.04420000
C      -44.17450000     -32.59970000     -68.05380000
C      -42.94400000     -32.64410000     -68.67810000
H      -41.46630000     -34.07230000     -69.72410000
H      -45.22310000     -35.79630000     -68.38750000
H      -44.65220000     -31.68520000     -67.60740000
H      -42.29780000     -31.75070000     -68.63620000
C      -46.36360000     -33.61210000     -67.35400000
H      -46.34830000     -33.06060000     -66.44310000
H      -46.80250000     -34.57700000     -67.21420000
C      -42.94680000     -36.37850000     -69.61470000
H      -42.07220000     -36.52830000     -70.15610000
H      -42.90580000     -37.04910000     -68.76990000
S      -47.50490000     -32.53620000     -68.35040000
S      -44.32180000     -37.00090000     -70.70680000
C      -47.17300000     -32.81410000     -70.14660000
H      -46.68990000     -33.82260000     -70.34880000
H      -48.16490000     -32.84910000     -70.56660000
C      -44.23620000     -35.90420000     -72.26480000
H      -44.76190000     -36.43260000     -73.01450000
H      -43.23610000     -35.83440000     -72.68720000
C      -44.91130000     -34.53980000     -71.95790000
H      -45.92340000     -34.73910000     -71.62950000
H      -44.34600000     -34.05520000     -71.17320000
C      -46.31610000     -31.72540000     -70.76960000
H      -45.28170000     -31.93240000     -70.60920000
H      -46.34740000     -30.78530000     -70.29830000
C      -46.40170000     -31.57900000     -72.22600000
C      -47.01710000     -30.46860000     -72.79220000
C      -45.81580000     -32.44610000     -73.21490000
H      -47.61330000     -29.76530000     -72.27170000
C      -45.93210000     -31.92830000     -74.49890000
C      -45.01810000     -33.63380000     -73.20780000
C      -44.60750000     -34.03810000     -74.43230000
S      -46.87660000     -30.42350000     -74.51280000
S      -45.12080000     -32.94250000     -75.68830000
H      -44.01610000     -34.89860000     -74.58510000
