40
Properties=species:S:1:pos:R:3 #=T CELL(abcABC):=T 1.889726e+02=T 90.00000=T Traj:=T positionsangstrom=T Step:=T 0=T Bead:=T pbc="F F F"
C      -42.64300000     -34.35450000     -68.31420000
C      -43.38060000     -35.29220000     -69.01540000
C      -44.76610000     -35.34930000     -68.89370000
C      -45.54210000     -34.43730000     -68.12160000
C      -44.81970000     -33.46590000     -67.46670000
C      -43.36180000     -33.45920000     -67.50580000
H      -41.57970000     -34.41670000     -68.52680000
H      -45.28740000     -36.16780000     -69.30870000
H      -45.24430000     -32.63890000     -66.89520000
H      -42.78860000     -32.67110000     -67.00320000
C      -47.04440000     -34.48270000     -68.14900000
H      -47.37120000     -34.53440000     -67.07810000
H      -47.33550000     -35.40120000     -68.77100000
C      -42.58210000     -36.21180000     -69.95140000
H      -41.69720000     -35.64210000     -70.37080000
H      -42.21700000     -37.09850000     -69.36730000
S      -47.94850000     -33.00160000     -68.60080000
S      -43.62580000     -36.83050000     -71.31980000
C      -47.49390000     -32.74970000     -70.36480000
H      -47.37330000     -33.75790000     -70.79820000
H      -48.37310000     -32.30750000     -70.77270000
C      -43.64510000     -35.42640000     -72.44380000
H      -43.65080000     -35.85000000     -73.46970000
H      -42.68960000     -34.74440000     -72.37290000
C      -44.88400000     -34.50910000     -72.22830000
H      -45.71930000     -35.15050000     -72.25920000
H      -44.98240000     -33.97630000     -71.29970000
C      -46.24060000     -31.90720000     -70.55660000
H      -45.33990000     -32.40290000     -70.24890000
H      -46.27320000     -31.03530000     -69.90140000
C      -46.09370000     -31.43840000     -71.99150000
C      -46.58370000     -30.19680000     -72.35300000
C      -45.51320000     -32.10850000     -73.11920000
H      -47.08790000     -29.53250000     -71.60130000
C      -45.67570000     -31.38640000     -74.30210000
C      -45.05060000     -33.46210000     -73.33030000
C      -44.92070000     -33.69880000     -74.70750000
S      -46.51020000     -29.86550000     -74.08470000
S      -45.30700000     -32.33050000     -75.71830000
H      -44.71860000     -34.67760000     -75.20390000
