40
Properties=species:S:1:pos:R:3 #=T CELL(abcABC):=T 1.889726e+02=T 90.00000=T Traj:=T positionsangstrom=T Step:=T 0=T Bead:=T pbc="F F F"
C      -48.99390000     -32.20110000     -71.06990000
C      -48.09830000     -31.99150000     -70.00900000
C      -46.95150000     -31.17210000     -70.27680000
C      -46.81110000     -30.49910000     -71.51460000
C      -47.77120000     -30.72240000     -72.51800000
C      -48.82400000     -31.64050000     -72.30150000
H      -49.86130000     -32.79770000     -71.01350000
H      -46.29540000     -30.98150000     -69.45910000
H      -47.59550000     -30.30160000     -73.50750000
H      -49.59890000     -31.93370000     -73.00100000
C      -45.83230000     -29.43120000     -71.71910000
H      -45.31210000     -29.20040000     -70.77060000
H      -46.23570000     -28.45940000     -71.90570000
C      -48.30520000     -32.59340000     -68.59740000
H      -47.60620000     -32.17520000     -67.88670000
H      -49.29870000     -32.41150000     -68.32070000
S      -44.53060000     -29.79350000     -73.06430000
S      -48.20970000     -34.52400000     -68.64600000
C      -44.13700000     -31.58830000     -72.81630000
H      -45.01550000     -32.16520000     -73.15350000
H      -43.33490000     -31.65020000     -73.57530000
C      -46.52260000     -34.72660000     -69.34990000
H      -46.24770000     -35.71060000     -69.09590000
H      -45.78030000     -34.01600000     -68.86180000
C      -46.27090000     -34.52800000     -70.92330000
H      -47.18310000     -34.84420000     -71.42340000
H      -46.12480000     -33.44410000     -71.06970000
C      -43.69030000     -32.13420000     -71.39480000
H      -44.69070000     -32.17330000     -70.88980000
H      -43.07800000     -31.38090000     -70.85200000
C      -43.00360000     -33.49090000     -71.42670000
C      -41.71940000     -33.66220000     -71.80620000
C      -43.72440000     -34.79940000     -71.48800000
H      -40.95920000     -32.88080000     -71.88200000
C      -42.90310000     -35.85550000     -71.87110000
C      -45.07160000     -35.27960000     -71.36920000
C      -45.14370000     -36.64650000     -71.35780000
S      -41.31820000     -35.26690000     -72.33020000
S      -43.61700000     -37.44470000     -71.91290000
H      -46.09190000     -37.14370000     -71.34620000
