40
Properties=species:S:1:pos:R:3 #=T CELL(abcABC):=T 1.889726e+02=T 90.00000=T Traj:=T positionsangstrom=T Step:=T 0=T Bead:=T pbc="F F F"
C      -41.99800000     -34.09010000     -68.73860000
C      -43.12190000     -34.82010000     -69.07640000
C      -44.37450000     -34.39810000     -68.62560000
C      -44.62040000     -33.11130000     -68.09510000
C      -43.48000000     -32.37140000     -67.79530000
C      -42.20590000     -32.88350000     -68.07860000
H      -40.97550000     -34.44200000     -68.89880000
H      -45.26370000     -34.95330000     -68.98660000
H      -43.51250000     -31.37170000     -67.32670000
H      -41.37000000     -32.27940000     -67.65140000
C      -46.08690000     -32.71060000     -67.87920000
H      -46.38280000     -32.70890000     -66.83080000
H      -46.78860000     -33.42610000     -68.33730000
C      -42.95190000     -36.14330000     -69.82760000
H      -42.29940000     -35.89820000     -70.73670000
H      -42.32160000     -36.85830000     -69.22480000
S      -46.58820000     -31.02650000     -68.50940000
S      -44.47420000     -37.17190000     -70.09120000
C      -46.80230000     -31.38890000     -70.35430000
H      -47.41320000     -32.24720000     -70.52750000
H      -47.39090000     -30.43330000     -70.62960000
C      -45.09330000     -36.37780000     -71.68340000
H      -46.07540000     -36.90280000     -71.97250000
H      -44.35580000     -36.63910000     -72.50090000
C      -45.32210000     -34.87810000     -71.69390000
H      -45.90740000     -34.59830000     -70.80170000
H      -44.37490000     -34.43260000     -71.38690000
C      -45.51940000     -31.47800000     -71.15290000
H      -44.85980000     -32.32830000     -70.78490000
H      -45.00490000     -30.61260000     -70.98670000
C      -45.86850000     -31.59150000     -72.63650000
C      -46.22920000     -30.49110000     -73.38250000
C      -46.12440000     -32.82560000     -73.30420000
H      -46.27940000     -29.43510000     -72.96040000
C      -46.47930000     -32.63650000     -74.60030000
C      -45.83170000     -34.29130000     -73.06970000
C      -45.93760000     -34.98920000     -74.23280000
S      -46.73110000     -30.90740000     -74.98810000
S      -46.52410000     -34.04430000     -75.61690000
H      -45.83230000     -36.06090000     -74.36150000
