40
Properties=species:S:1:pos:R:3 #=T CELL(abcABC):=T 1.889726e+02=T 90.00000=T Traj:=T positionsangstrom=T Step:=T 0=T Bead:=T pbc="F F F"
C      -42.43720000     -34.08120000     -69.36130000
C      -43.37260000     -35.08900000     -69.10820000
C      -44.59310000     -34.72320000     -68.53760000
C      -44.82770000     -33.39470000     -68.18010000
C      -43.84480000     -32.39560000     -68.34350000
C      -42.66450000     -32.74480000     -69.00090000
H      -41.49100000     -34.31700000     -69.81450000
H      -45.37480000     -35.48430000     -68.50320000
H      -44.09680000     -31.34640000     -68.06280000
H      -41.83210000     -32.04430000     -69.09930000
C      -46.14340000     -33.01510000     -67.46850000
H      -45.85830000     -32.52270000     -66.49470000
H      -46.75540000     -33.92920000     -67.22210000
C      -43.06390000     -36.54230000     -69.35360000
H      -41.99320000     -36.59550000     -69.78250000
H      -43.24590000     -37.29870000     -68.51840000
S      -47.26900000     -31.73610000     -68.22460000
S      -44.30530000     -37.20350000     -70.67760000
C      -47.31490000     -32.31490000     -69.94510000
H      -47.08670000     -33.41730000     -69.95730000
H      -48.26570000     -32.23700000     -70.47010000
C      -44.21810000     -35.78370000     -71.82930000
H      -44.01270000     -36.22620000     -72.85630000
H      -43.27520000     -35.16930000     -71.64430000
C      -45.40180000     -34.88380000     -71.93230000
H      -46.36570000     -35.45910000     -71.95380000
H      -45.41240000     -34.24930000     -71.03280000
C      -46.18760000     -31.58490000     -70.71720000
H      -45.18630000     -31.90040000     -70.36780000
H      -46.20020000     -30.53040000     -70.42450000
C      -46.34650000     -31.59620000     -72.24320000
C      -46.61960000     -30.42610000     -72.90610000
C      -46.06250000     -32.61790000     -73.26220000
H      -46.82750000     -29.50810000     -72.39790000
C      -46.06330000     -32.21520000     -74.58700000
C      -45.48050000     -33.99580000     -73.16920000
C      -45.11590000     -34.51450000     -74.34990000
S      -46.66560000     -30.55220000     -74.63970000
S      -45.38940000     -33.42630000     -75.69180000
H      -44.64120000     -35.49880000     -74.59320000
