40
Properties=species:S:1:pos:R:3 #=T CELL(abcABC):=T 1.889726e+02=T 90.00000=T Traj:=T positionsangstrom=T Step:=T 0=T Bead:=T pbc="F F F"
C      -41.95120000     -34.12860000     -68.80260000
C      -43.07950000     -34.82800000     -69.08820000
C      -44.39380000     -34.36050000     -68.74460000
C      -44.56070000     -33.19790000     -68.03200000
C      -43.37580000     -32.41920000     -67.84520000
C      -42.11380000     -32.87660000     -68.19800000
H      -40.96130000     -34.45790000     -69.16590000
H      -45.28810000     -35.01990000     -68.80640000
H      -43.40180000     -31.46490000     -67.39120000
H      -41.27820000     -32.20240000     -67.99220000
C      -45.91570000     -32.68590000     -67.79080000
H      -46.11170000     -32.69100000     -66.66760000
H      -46.54280000     -33.40020000     -68.30020000
C      -42.95370000     -36.17180000     -69.78500000
H      -42.37290000     -36.16580000     -70.70730000
H      -42.53090000     -36.88440000     -69.13680000
S      -46.14730000     -30.93040000     -68.45570000
S      -44.51820000     -37.03990000     -70.17290000
C      -46.73960000     -31.16010000     -70.21880000
H      -47.38130000     -32.09890000     -70.19930000
H      -47.39460000     -30.39720000     -70.57290000
C      -45.44730000     -36.33930000     -71.59610000
H      -46.48980000     -36.71660000     -71.44000000
H      -45.02430000     -36.73280000     -72.42690000
C      -45.63170000     -34.85550000     -71.60740000
H      -46.35950000     -34.57500000     -70.79260000
H      -44.68190000     -34.34410000     -71.36230000
C      -45.55100000     -31.32390000     -71.20140000
H      -44.91530000     -32.19460000     -70.86420000
H      -44.91400000     -30.37530000     -71.16800000
C      -45.94290000     -31.61800000     -72.63370000
C      -46.17890000     -30.53530000     -73.47620000
C      -46.11290000     -32.85590000     -73.37580000
H      -45.98120000     -29.51310000     -73.17160000
C      -46.50950000     -32.68500000     -74.69750000
C      -46.03560000     -34.32350000     -72.98100000
C      -46.26860000     -35.09330000     -74.07070000
S      -46.68220000     -30.96240000     -75.08180000
S      -46.65470000     -34.23110000     -75.54530000
H      -46.28550000     -36.16750000     -74.11710000
