40
Properties=species:S:1:pos:R:3 #=T CELL(abcABC):=T 1.889726e+02=T 90.00000=T Traj:=T positionsangstrom=T Step:=T 0=T Bead:=T pbc="F F F"
C      -42.02060000     -34.08770000     -69.03270000
C      -43.26840000     -34.66200000     -69.24020000
C      -44.39210000     -34.00600000     -68.66560000
C      -44.24880000     -32.80970000     -68.00040000
C      -42.94270000     -32.29880000     -67.83040000
C      -41.83570000     -32.90550000     -68.29930000
H      -41.13890000     -34.68920000     -69.31740000
H      -45.34110000     -34.57370000     -68.74340000
H      -42.83300000     -31.35390000     -67.19960000
H      -40.78570000     -32.50690000     -68.21510000
C      -45.44050000     -31.98680000     -67.53400000
H      -45.29170000     -31.49970000     -66.54210000
H      -46.35150000     -32.60070000     -67.50490000
C      -43.22100000     -36.06040000     -69.73360000
H      -42.57970000     -36.09370000     -70.67210000
H      -42.75230000     -36.56860000     -68.91600000
S      -45.86990000     -30.59860000     -68.64990000
S      -44.79910000     -37.09170000     -70.01350000
C      -46.35880000     -31.54790000     -70.15590000
H      -46.63740000     -32.49950000     -69.75480000
H      -47.26010000     -31.07680000     -70.49740000
C      -45.52160000     -36.50950000     -71.62270000
H      -46.45360000     -37.06370000     -71.62320000
H      -44.90110000     -36.84630000     -72.40290000
C      -45.73880000     -34.99730000     -71.67590000
H      -46.49450000     -34.63180000     -70.94450000
H      -44.82960000     -34.44650000     -71.43470000
C      -45.26210000     -31.59530000     -71.21400000
H      -44.43780000     -32.38860000     -71.03920000
H      -44.65290000     -30.63900000     -71.11750000
C      -45.70890000     -31.81110000     -72.64150000
C      -45.84120000     -30.79890000     -73.57300000
C      -46.20020000     -33.13120000     -73.33130000
H      -45.70580000     -29.75620000     -73.17690000
C      -46.74550000     -32.79920000     -74.60800000
C      -46.21620000     -34.52210000     -73.00300000
C      -46.70150000     -35.22600000     -74.12920000
S      -46.65490000     -31.15570000     -75.06770000
S      -47.17160000     -34.20320000     -75.49680000
H      -46.86320000     -36.27080000     -74.33000000
