40
Properties=species:S:1:pos:R:3 #=T CELL(abcABC):=T 1.889726e+02=T 90.00000=T Traj:=T positionsangstrom=T Step:=T 0=T Bead:=T pbc="F F F"
C      -42.37570000     -34.07730000     -69.26560000
C      -43.36550000     -35.04610000     -68.97740000
C      -44.54010000     -34.61670000     -68.38900000
C      -44.83070000     -33.24350000     -68.12570000
C      -43.88830000     -32.28230000     -68.48300000
C      -42.63560000     -32.71150000     -69.00480000
H      -41.45780000     -34.30400000     -69.75010000
H      -45.19220000     -35.38300000     -67.97870000
H      -44.00490000     -31.22010000     -68.17370000
H      -41.86130000     -32.01640000     -69.37410000
C      -46.08850000     -32.84890000     -67.45670000
H      -45.85160000     -32.38750000     -66.50160000
H      -46.62830000     -33.75960000     -67.23880000
C      -43.19400000     -36.56660000     -69.20900000
H      -42.19940000     -36.81580000     -69.38020000
H      -43.57480000     -37.09930000     -68.37410000
S      -47.21030000     -31.62480000     -68.28510000
S      -44.27710000     -37.25090000     -70.57470000
C      -47.20180000     -32.02960000     -70.05960000
H      -47.39170000     -33.08760000     -70.12880000
H      -47.99480000     -31.46610000     -70.56970000
C      -44.16520000     -35.93280000     -72.00980000
H      -44.33480000     -36.56210000     -72.90320000
H      -43.18360000     -35.56130000     -72.04620000
C      -45.18180000     -34.83980000     -71.89190000
H      -46.12160000     -35.35590000     -71.65350000
H      -44.97950000     -34.24660000     -70.99470000
C      -45.84490000     -31.63400000     -70.78560000
H      -44.97540000     -32.33960000     -70.58210000
H      -45.58310000     -30.68440000     -70.36000000
C      -46.16490000     -31.60550000     -72.28740000
C      -46.72320000     -30.50150000     -72.93260000
C      -45.82340000     -32.65800000     -73.21370000
H      -47.01430000     -29.56480000     -72.54100000
C      -45.97950000     -32.25590000     -74.50720000
C      -45.44090000     -34.07620000     -73.17410000
C      -45.44390000     -34.61610000     -74.41580000
S      -46.69560000     -30.70250000     -74.69470000
S      -45.78730000     -33.48970000     -75.71580000
H      -45.09060000     -35.59860000     -74.75030000
