40
Properties=species:S:1:pos:R:3 #=T CELL(abcABC):=T 1.889726e+02=T 90.00000=T Traj:=T positionsangstrom=T Step:=T 0=T Bead:=T pbc="F F F"
C      -42.17000000     -34.23240000     -69.11450000
C      -43.43260000     -34.67500000     -68.78090000
C      -44.40750000     -33.73790000     -68.57450000
C      -44.13990000     -32.36740000     -68.56920000
C      -42.89430000     -31.91320000     -68.98850000
C      -41.86930000     -32.88600000     -69.25080000
H      -41.43990000     -34.96880000     -69.27110000
H      -45.43640000     -34.11580000     -68.28330000
H      -42.60330000     -30.91850000     -69.09510000
H      -40.92700000     -32.47250000     -69.45660000
C      -45.20530000     -31.43930000     -68.02460000
H      -44.95120000     -30.99270000     -67.02580000
H      -46.02060000     -32.10010000     -67.99840000
C      -43.62890000     -36.16760000     -68.70200000
H      -42.83110000     -36.80690000     -69.17590000
H      -43.58310000     -36.51510000     -67.67710000
S      -45.59680000     -29.98650000     -69.13290000
S      -45.27240000     -36.81980000     -69.23590000
C      -46.40700000     -30.85570000     -70.62270000
H      -47.29580000     -31.39070000     -70.27200000
H      -46.78290000     -30.11080000     -71.29440000
C      -45.35860000     -36.52640000     -71.08770000
H      -46.13050000     -37.23660000     -71.40100000
H      -44.34430000     -36.84650000     -71.47770000
C      -45.73500000     -35.08530000     -71.41550000
H      -46.61850000     -34.78780000     -70.81920000
H      -44.95100000     -34.39970000     -71.02220000
C      -45.37750000     -31.68180000     -71.35560000
H      -45.16360000     -32.68080000     -70.77500000
H      -44.45900000     -31.17690000     -71.31390000
C      -45.81110000     -32.00750000     -72.73210000
C      -46.02740000     -31.03160000     -73.67030000
C      -46.07520000     -33.32050000     -73.31830000
H      -45.82410000     -29.97530000     -73.46260000
C      -46.55690000     -33.20970000     -74.60650000
C      -45.98630000     -34.69570000     -72.85480000
C      -46.52160000     -35.59990000     -73.76450000
S      -46.64870000     -31.56010000     -75.20930000
S      -46.97700000     -34.84680000     -75.22270000
H      -46.68510000     -36.63790000     -73.59080000
