40
Properties=species:S:1:pos:R:3 #=T CELL(abcABC):=T 1.889726e+02=T 90.00000=T Traj:=T positionsangstrom=T Step:=T 0=T Bead:=T pbc="F F F"
C      -42.00610000     -34.32690000     -68.88660000
C      -43.33270000     -34.86940000     -68.97990000
C      -44.40200000     -33.96560000     -68.72780000
C      -44.15220000     -32.74130000     -68.16120000
C      -42.84470000     -32.21040000     -68.16740000
C      -41.77800000     -32.94710000     -68.58890000
H      -41.27160000     -35.07880000     -69.07450000
H      -45.45650000     -34.33620000     -68.71750000
H      -42.75260000     -31.27750000     -67.71690000
H      -40.78800000     -32.50520000     -68.65200000
C      -45.29960000     -31.95330000     -67.66850000
H      -45.12570000     -31.50410000     -66.67520000
H      -46.12920000     -32.64080000     -67.60530000
C      -43.46650000     -36.33980000     -69.26330000
H      -42.84020000     -36.62890000     -70.13450000
H      -43.13650000     -36.83670000     -68.33130000
S      -45.67740000     -30.57630000     -68.78730000
S      -45.17300000     -36.99220000     -69.64900000
C      -46.15150000     -31.31390000     -70.47430000
H      -46.67850000     -32.21810000     -70.42870000
H      -46.91200000     -30.56970000     -70.81500000
C      -45.72920000     -36.41530000     -71.40830000
H      -46.72950000     -36.73710000     -71.42800000
H      -45.05410000     -37.01600000     -72.06860000
C      -45.63620000     -34.92030000     -71.60040000
H      -46.14920000     -34.46790000     -70.72250000
H      -44.56480000     -34.50320000     -71.55760000
C      -44.97980000     -31.54080000     -71.52730000
H      -44.36180000     -32.39600000     -71.05300000
H      -44.34330000     -30.57770000     -71.54710000
C      -45.60540000     -31.78370000     -72.86360000
C      -45.76140000     -30.75380000     -73.78080000
C      -46.18480000     -32.99520000     -73.31260000
H      -45.48440000     -29.72330000     -73.69990000
C      -46.74670000     -32.82110000     -74.59160000
C      -46.25700000     -34.41420000     -72.94890000
C      -46.74970000     -35.23980000     -73.91940000
S      -46.65640000     -31.22130000     -75.24450000
S      -47.23600000     -34.34230000     -75.31210000
H      -46.58580000     -36.27840000     -73.76930000
