40
Properties=species:S:1:pos:R:3 #=T CELL(abcABC):=T 1.889726e+02=T 90.00000=T Traj:=T positionsangstrom=T Step:=T 0=T Bead:=T pbc="F F F"
C      -42.23590000     -33.99170000     -69.51090000
C      -43.38210000     -34.56880000     -68.89680000
C      -44.23320000     -33.71400000     -68.24880000
C      -44.15720000     -32.27650000     -68.31480000
C      -43.02670000     -31.80570000     -68.94890000
C      -42.15150000     -32.66440000     -69.49660000
H      -41.50830000     -34.60100000     -70.02030000
H      -45.15940000     -34.13380000     -67.86210000
H      -42.90960000     -30.69820000     -69.01340000
H      -41.26230000     -32.21260000     -69.98500000
C      -45.30260000     -31.37420000     -67.89400000
H      -44.91940000     -30.90060000     -67.00340000
H      -46.24540000     -31.94820000     -67.62480000
C      -43.58660000     -36.09280000     -68.85060000
H      -43.08340000     -36.54860000     -69.70520000
H      -43.23150000     -36.51910000     -67.91970000
S      -45.56710000     -30.01300000     -69.14720000
S      -45.37790000     -36.65100000     -68.97630000
C      -46.31620000     -30.92950000     -70.64040000
H      -46.84440000     -31.79640000     -70.27590000
H      -46.91570000     -30.21570000     -71.14390000
C      -45.73050000     -36.26410000     -70.75770000
H      -46.75770000     -36.70720000     -70.90670000
H      -45.01100000     -36.76120000     -71.45750000
C      -45.64830000     -34.80450000     -71.14070000
H      -46.40250000     -34.23980000     -70.59920000
H      -44.64770000     -34.42400000     -70.99560000
C      -45.28240000     -31.49320000     -71.64090000
H      -44.72640000     -32.30510000     -71.12030000
H      -44.59390000     -30.67060000     -71.89470000
C      -45.94730000     -31.94050000     -72.96290000
C      -46.09810000     -31.09970000     -74.03970000
C      -46.16900000     -33.32660000     -73.32110000
H      -46.19240000     -30.06300000     -73.90270000
C      -46.52000000     -33.51150000     -74.64850000
C      -46.04900000     -34.63850000     -72.65040000
C      -46.11760000     -35.68530000     -73.58500000
S      -46.67320000     -31.96610000     -75.44680000
S      -46.73510000     -35.13570000     -75.14640000
H      -45.97200000     -36.72040000     -73.27650000
