40
Properties=species:S:1:pos:R:3 #=T CELL(abcABC):=T 1.889726e+02=T 90.00000=T Traj:=T positionsangstrom=T Step:=T 0=T Bead:=T pbc="F F F"
C      -42.81850000     -36.93110000     -70.57650000
C      -43.93290000     -36.34020000     -69.98850000
C      -43.72340000     -35.07640000     -69.46550000
C      -42.51870000     -34.36560000     -69.54650000
C      -41.38370000     -35.03640000     -70.13780000
C      -41.56100000     -36.32950000     -70.56710000
H      -42.86110000     -37.86310000     -71.00960000
H      -44.56230000     -34.44230000     -69.03010000
H      -40.45000000     -34.41410000     -70.21760000
H      -40.68040000     -36.89120000     -70.88640000
C      -42.30430000     -33.01470000     -68.98260000
H      -41.37970000     -33.20540000     -68.35640000
H      -43.01860000     -32.77720000     -68.23500000
C      -45.27520000     -36.98510000     -70.12860000
H      -45.33590000     -37.91320000     -69.69460000
H      -46.10020000     -36.39440000     -69.73920000
S      -42.01970000     -31.58540000     -70.19030000
S      -45.49420000     -37.30930000     -71.98080000
C      -43.60260000     -30.75940000     -70.48680000
H      -43.89320000     -30.15640000     -69.59080000
H      -43.37050000     -30.08750000     -71.26790000
C      -46.61010000     -35.86210000     -72.50980000
H      -47.60880000     -35.96880000     -71.98220000
H      -46.96490000     -36.01260000     -73.53220000
C      -46.06790000     -34.49380000     -72.24960000
H      -45.85350000     -34.28390000     -71.19670000
H      -45.18780000     -34.37650000     -72.81880000
C      -44.72130000     -31.77030000     -70.80980000
H      -44.74500000     -32.51080000     -69.99520000
H      -44.39710000     -32.41970000     -71.62150000
C      -46.04450000     -31.21150000     -71.30580000
C      -46.35040000     -29.89990000     -71.27400000
C      -47.04850000     -31.98330000     -71.96650000
H      -45.70720000     -29.22930000     -70.80060000
C      -48.11450000     -31.22700000     -72.38320000
C      -47.10880000     -33.29630000     -72.54460000
C      -48.26150000     -33.49310000     -73.27200000
S      -47.91200000     -29.50540000     -71.96900000
S      -49.29340000     -32.03400000     -73.31030000
H      -48.65690000     -34.44480000     -73.47820000
