40
Properties=species:S:1:pos:R:3 #=T CELL(abcABC):=T 1.889726e+02=T 90.00000=T Traj:=T positionsangstrom=T Step:=T 0=T Bead:=T pbc="F F F"
C      -42.18700000     -34.10340000     -69.49150000
C      -43.34060000     -34.56240000     -68.84800000
C      -44.26670000     -33.59160000     -68.31660000
C      -44.11570000     -32.18350000     -68.52760000
C      -42.96620000     -31.84500000     -69.28680000
C      -42.01540000     -32.75850000     -69.75770000
H      -41.39060000     -34.69750000     -69.87850000
H      -45.09030000     -33.84150000     -67.69250000
H      -42.79660000     -30.79850000     -69.57490000
H      -41.08990000     -32.47840000     -70.26480000
C      -45.16870000     -31.28980000     -67.97250000
H      -44.85470000     -30.85310000     -67.00280000
H      -45.97670000     -31.94320000     -67.72600000
C      -43.62680000     -35.98500000     -68.60090000
H      -43.01520000     -36.72440000     -69.20140000
H      -43.37030000     -36.24030000     -67.58380000
S      -45.79060000     -30.10580000     -69.26930000
S      -45.39730000     -36.37580000     -68.79940000
C      -46.38340000     -31.26380000     -70.65570000
H      -46.72480000     -32.13560000     -70.16300000
H      -47.32460000     -30.76530000     -70.99890000
C      -45.80480000     -36.20250000     -70.55980000
H      -46.87300000     -36.50090000     -70.64070000
H      -45.23750000     -36.92390000     -71.11330000
C      -45.53480000     -34.79910000     -71.16870000
H      -46.00700000     -33.92740000     -70.60100000
H      -44.44920000     -34.57770000     -71.09210000
C      -45.30480000     -31.41110000     -71.75080000
H      -44.57380000     -32.04840000     -71.40850000
H      -44.84350000     -30.41800000     -71.93660000
C      -45.83050000     -31.99160000     -73.01890000
C      -46.17370000     -31.14140000     -74.01850000
C      -45.97380000     -33.39290000     -73.28130000
H      -46.17020000     -30.08250000     -74.03050000
C      -46.36800000     -33.50130000     -74.60390000
C      -46.00330000     -34.63340000     -72.59990000
C      -46.30920000     -35.68680000     -73.47680000
S      -46.73220000     -32.01630000     -75.41590000
S      -46.65740000     -35.20200000     -75.10810000
H      -46.38350000     -36.68320000     -73.13080000
