40
Properties=species:S:1:pos:R:3 #=T CELL(abcABC):=T 1.889726e+02=T 90.00000=T Traj:=T positionsangstrom=T Step:=T 0=T Bead:=T pbc="F F F"
C      -41.88840000     -34.22160000     -68.83240000
C      -43.19130000     -34.72580000     -69.07760000
C      -44.26070000     -34.06070000     -68.51760000
C      -44.06150000     -32.77760000     -67.98130000
C      -42.84570000     -32.21980000     -68.01590000
C      -41.71150000     -32.91390000     -68.37500000
H      -41.03600000     -34.86410000     -69.20990000
H      -45.30800000     -34.41870000     -68.61830000
H      -42.75010000     -31.08510000     -67.85730000
H      -40.64940000     -32.56370000     -68.20530000
C      -45.28520000     -31.92400000     -67.51460000
H      -44.96910000     -31.35770000     -66.65530000
H      -46.12010000     -32.61280000     -67.28320000
C      -43.37280000     -36.02000000     -69.72200000
H      -42.94810000     -35.92310000     -70.72930000
H      -42.79080000     -36.82840000     -69.28020000
S      -45.82930000     -30.65680000     -68.76210000
S      -44.98720000     -36.84700000     -69.85120000
C      -46.29040000     -31.63620000     -70.25590000
H      -46.72600000     -32.65540000     -69.94060000
H      -47.08880000     -31.16500000     -70.78630000
C      -45.56480000     -36.56230000     -71.56510000
H      -46.57940000     -37.06550000     -71.72070000
H      -44.90360000     -36.92290000     -72.35590000
C      -45.73130000     -35.02940000     -71.77870000
H      -46.38570000     -34.57630000     -70.99320000
H      -44.75270000     -34.63760000     -71.59350000
C      -45.19030000     -31.81700000     -71.32190000
H      -44.66050000     -32.77910000     -71.10450000
H      -44.49060000     -31.09520000     -71.17780000
C      -45.74050000     -31.84820000     -72.72470000
C      -45.93920000     -30.75980000     -73.49150000
C      -46.25600000     -33.06760000     -73.36530000
H      -45.57830000     -29.73610000     -73.20720000
C      -46.75970000     -32.80800000     -74.61590000
C      -46.27980000     -34.47860000     -73.05940000
C      -46.83550000     -35.27720000     -74.05500000
S      -46.58980000     -31.12050000     -75.13600000
S      -47.27240000     -34.24580000     -75.44440000
H      -47.22490000     -36.24540000     -74.05330000
