40
Properties=species:S:1:pos:R:3 #=T CELL(abcABC):=T 1.889726e+02=T 90.00000=T Traj:=T positionsangstrom=T Step:=T 0=T Bead:=T pbc="F F F"
C      -46.40480000     -35.78430000     -74.70280000
C      -46.96940000     -35.76430000     -73.40750000
C      -46.09410000     -36.15620000     -72.34090000
C      -44.79600000     -36.68660000     -72.59410000
C      -44.33880000     -36.82460000     -73.86700000
C      -45.19370000     -36.36580000     -74.97700000
H      -46.93210000     -35.22470000     -75.50740000
H      -46.39180000     -36.12570000     -71.31280000
H      -43.38710000     -37.40650000     -74.10950000
H      -44.84450000     -36.55460000     -75.99740000
C      -43.90440000     -37.17940000     -71.39880000
H      -43.39540000     -38.10940000     -71.70300000
H      -44.48720000     -37.36450000     -70.49000000
C      -48.34140000     -35.38850000     -73.21790000
H      -48.71160000     -35.00770000     -74.16420000
H      -48.96470000     -36.39100000     -73.07210000
S      -42.53680000     -35.99720000     -70.98360000
S      -48.90220000     -34.41870000     -71.64010000
C      -43.41020000     -34.52960000     -70.32010000
H      -44.38360000     -34.85790000     -70.09890000
H      -42.84440000     -34.19420000     -69.40900000
C      -47.98510000     -32.87060000     -71.41070000
H      -48.74860000     -32.13050000     -71.38660000
H      -47.35380000     -32.79300000     -72.29020000
C      -47.07700000     -32.91240000     -70.18540000
H      -47.61770000     -33.18870000     -69.32540000
H      -46.31380000     -33.66100000     -70.27030000
C      -43.58240000     -33.41260000     -71.36570000
H      -44.45300000     -33.64740000     -71.94540000
H      -42.70220000     -33.31990000     -72.05060000
C      -43.81580000     -32.05330000     -70.74760000
C      -42.70100000     -31.21900000     -70.89380000
C      -44.93830000     -31.39640000     -70.13380000
H      -41.72150000     -31.55100000     -71.28000000
C      -44.56650000     -30.07150000     -69.86640000
C      -46.35300000     -31.62190000     -69.95360000
C      -46.99150000     -30.46890000     -69.54710000
S      -42.99350000     -29.63830000     -70.19610000
S      -45.88960000     -29.13230000     -69.21660000
H      -48.05970000     -30.21240000     -69.52880000
