40
Properties=species:S:1:pos:R:3 #=T CELL(abcABC):=T 1.889726e+02=T 90.00000=T Traj:=T positionsangstrom=T Step:=T 0=T Bead:=T pbc="F F F"
C      -45.90920000     -34.87020000     -67.41060000
C      -46.00450000     -35.53060000     -68.67760000
C      -44.84520000     -35.86000000     -69.37520000
C      -43.58980000     -35.51820000     -68.86760000
C      -43.46230000     -34.90640000     -67.67790000
C      -44.59850000     -34.57340000     -66.89360000
H      -46.78770000     -34.63720000     -66.87140000
H      -44.91680000     -36.46080000     -70.28400000
H      -42.46780000     -34.82070000     -67.23080000
H      -44.48360000     -34.06600000     -66.01100000
C      -42.38590000     -35.87200000     -69.76360000
H      -42.56360000     -36.76350000     -70.42480000
H      -41.40530000     -36.05370000     -69.28570000
C      -47.34610000     -35.79910000     -69.31410000
H      -47.13920000     -36.26960000     -70.30620000
H      -48.06360000     -36.51870000     -68.79390000
S      -42.13760000     -34.50070000     -71.02330000
S      -48.45300000     -34.31980000     -69.63080000
C      -42.89280000     -32.95850000     -70.43490000
H      -42.76640000     -32.99710000     -69.29510000
H      -42.24890000     -32.12400000     -70.84150000
C      -48.03480000     -33.81790000     -71.31820000
H      -48.83220000     -34.00420000     -72.00010000
H      -47.12420000     -34.29070000     -71.76720000
C      -47.79330000     -32.26950000     -71.30680000
H      -48.78890000     -31.84270000     -71.16670000
H      -47.21340000     -31.87640000     -70.37930000
C      -44.35260000     -32.70780000     -70.85010000
H      -44.85370000     -31.91660000     -70.19220000
H      -45.08900000     -33.61580000     -70.81140000
C      -44.46030000     -32.22250000     -72.30410000
C      -43.32640000     -32.09960000     -73.07130000
C      -45.74640000     -31.86990000     -72.97390000
H      -42.25470000     -32.26860000     -72.95880000
C      -45.49770000     -31.50630000     -74.27780000
C      -47.18010000     -31.80880000     -72.64340000
C      -47.90610000     -31.44340000     -73.75650000
S      -43.77750000     -31.54330000     -74.72460000
S      -46.91950000     -31.03630000     -75.14910000
H      -48.99750000     -31.23200000     -73.66290000
