40
Properties=species:S:1:pos:R:3 #=T CELL(abcABC):=T 1.889726e+02=T 90.00000=T Traj:=T positionsangstrom=T Step:=T 0=T Bead:=T pbc="F F F"
C      -42.67260000     -37.18540000     -70.27810000
C      -43.81260000     -36.45720000     -70.02660000
C      -43.60280000     -35.11740000     -69.65310000
C      -42.35510000     -34.49610000     -69.70630000
C      -41.22140000     -35.23700000     -70.05840000
C      -41.39460000     -36.61430000     -70.27000000
H      -42.74160000     -38.21340000     -70.48270000
H      -44.36990000     -34.45380000     -69.19580000
H      -40.20950000     -34.80230000     -69.97080000
H      -40.51900000     -37.16950000     -70.44170000
C      -42.26550000     -33.12230000     -69.09430000
H      -41.42120000     -33.02050000     -68.40460000
H      -43.20510000     -32.84770000     -68.58390000
C      -45.23960000     -37.05550000     -70.13500000
H      -45.13500000     -38.09160000     -69.65600000
H      -46.09380000     -36.50230000     -69.72930000
S      -42.07200000     -31.73410000     -70.33440000
S      -45.60470000     -37.10360000     -72.03370000
C      -43.76120000     -30.78180000     -70.33670000
H      -43.91220000     -30.38890000     -69.33530000
H      -43.68060000     -29.99050000     -71.07160000
C      -46.76440000     -35.68470000     -72.50800000
H      -47.64020000     -35.84580000     -71.95190000
H      -46.83440000     -35.82720000     -73.59490000
C      -46.19050000     -34.33680000     -72.19310000
H      -45.93380000     -34.48150000     -71.12320000
H      -45.24100000     -34.34630000     -72.71120000
C      -44.87150000     -31.82840000     -70.61780000
H      -44.95240000     -32.53490000     -69.73950000
H      -44.54310000     -32.46890000     -71.41600000
C      -46.15030000     -31.16820000     -71.13780000
C      -46.52610000     -29.89690000     -70.99940000
C      -47.05680000     -31.87640000     -72.01130000
H      -45.86360000     -29.23950000     -70.49700000
C      -48.10270000     -31.08330000     -72.48850000
C      -47.13140000     -33.21610000     -72.52510000
C      -48.26160000     -33.38980000     -73.23220000
S      -47.95800000     -29.42640000     -71.89990000
S      -49.11190000     -31.95660000     -73.58590000
H      -48.40320000     -34.33080000     -73.72120000
