40
Properties=species:S:1:pos:R:3 #=T CELL(abcABC):=T 1.889726e+02=T 90.00000=T Traj:=T positionsangstrom=T Step:=T 0=T Bead:=T pbc="F F F"
C      -46.52640000     -35.48890000     -74.89260000
C      -47.06920000     -35.65450000     -73.64070000
C      -46.31960000     -36.16710000     -72.56480000
C      -44.95200000     -36.47910000     -72.68020000
C      -44.41780000     -36.43530000     -73.99750000
C      -45.14620000     -35.95990000     -75.04380000
H      -47.19160000     -35.24020000     -75.67990000
H      -46.78720000     -36.15090000     -71.60300000
H      -43.35480000     -36.70740000     -74.03390000
H      -44.81840000     -35.89600000     -76.08680000
C      -44.24260000     -36.89810000     -71.43990000
H      -44.03880000     -37.96900000     -71.49650000
H      -44.91620000     -36.64530000     -70.61000000
C      -48.58910000     -35.34710000     -73.39180000
H      -49.08190000     -34.73300000     -74.23470000
H      -49.06750000     -36.30390000     -73.26560000
S      -42.58790000     -36.08480000     -71.13030000
S      -48.77860000     -34.45310000     -71.72690000
C      -43.10560000     -34.48930000     -70.43610000
H      -43.91460000     -34.60320000     -69.73380000
H      -42.24820000     -34.19900000     -69.90230000
C      -47.39820000     -33.25750000     -71.67490000
H      -47.82930000     -32.37940000     -72.11340000
H      -46.72060000     -33.64670000     -72.37360000
C      -46.88950000     -33.09410000     -70.28090000
H      -47.73250000     -33.14240000     -69.62870000
H      -46.14460000     -33.80470000     -69.98850000
C      -43.50910000     -33.37510000     -71.43670000
H      -44.46940000     -33.76480000     -71.89640000
H      -42.74040000     -33.17360000     -72.19860000
C      -43.73210000     -32.01390000     -70.77070000
C      -42.64810000     -31.15320000     -70.66290000
C      -44.89930000     -31.36000000     -70.19490000
H      -41.70210000     -31.13510000     -71.19430000
C      -44.63100000     -30.10840000     -69.62800000
C      -46.28650000     -31.72060000     -69.98820000
C      -47.00600000     -30.78450000     -69.32460000
S      -42.98670000     -29.63200000     -69.88780000
S      -46.02270000     -29.39870000     -68.84300000
H      -47.97820000     -31.04830000     -68.83180000
