40
Properties=species:S:1:pos:R:3 #=T CELL(abcABC):=T 1.889726e+02=T 90.00000=T Traj:=T positionsangstrom=T Step:=T 0=T Bead:=T pbc="F F F"
C      -45.95750000     -34.83430000     -67.35760000
C      -46.18040000     -35.53050000     -68.54730000
C      -45.00670000     -35.75550000     -69.46390000
C      -43.73700000     -35.47320000     -69.00600000
C      -43.55250000     -34.84050000     -67.73760000
C      -44.62350000     -34.48140000     -66.91040000
H      -46.83820000     -34.55780000     -66.80160000
H      -45.26060000     -36.20570000     -70.40400000
H      -42.56610000     -34.54370000     -67.38460000
H      -44.51030000     -34.03140000     -65.95650000
C      -42.39940000     -35.67680000     -69.76900000
H      -42.32660000     -36.59270000     -70.31110000
H      -41.68200000     -35.57380000     -68.97480000
C      -47.53610000     -35.77580000     -69.01650000
H      -47.57930000     -36.34830000     -69.87540000
H      -48.10850000     -36.24040000     -68.24860000
S      -42.04550000     -34.40600000     -71.07180000
S      -48.40620000     -34.10610000     -69.36650000
C      -42.93750000     -32.92970000     -70.39150000
H      -42.95040000     -33.04440000     -69.32740000
H      -42.35020000     -32.05900000     -70.65240000
C      -47.72940000     -33.72710000     -71.04700000
H      -48.20250000     -34.26560000     -71.89430000
H      -46.70960000     -34.06790000     -70.94890000
C      -47.63980000     -32.21760000     -71.28500000
H      -48.49200000     -31.65270000     -71.06980000
H      -46.93520000     -31.84820000     -70.50770000
C      -44.36320000     -32.68050000     -70.96860000
H      -44.83560000     -31.95920000     -70.35560000
H      -44.94220000     -33.56790000     -70.79160000
C      -44.41530000     -32.25650000     -72.38700000
C      -43.35090000     -32.10710000     -73.24700000
C      -45.66950000     -32.05140000     -73.01880000
H      -42.27140000     -32.00140000     -72.95650000
C      -45.50320000     -31.76880000     -74.35890000
C      -47.13580000     -31.90950000     -72.66840000
C      -47.87540000     -31.68000000     -73.81460000
S      -43.82530000     -31.51730000     -74.84770000
S      -46.92050000     -31.40020000     -75.27590000
H      -48.95070000     -31.51520000     -73.80510000
