40
Properties=species:S:1:pos:R:3 #=T CELL(abcABC):=T 1.889726e+02=T 90.00000=T Traj:=T positionsangstrom=T Step:=T 0=T Bead:=T pbc="F F F"
C      -48.32130000     -31.41440000     -71.47200000
C      -47.93310000     -31.92880000     -70.19550000
C      -46.78780000     -31.37780000     -69.50440000
C      -46.05430000     -30.39360000     -70.10060000
C      -46.35560000     -30.00110000     -71.44350000
C      -47.45720000     -30.54400000     -72.12260000
H      -49.16340000     -31.85520000     -71.98190000
H      -46.51290000     -31.77250000     -68.50510000
H      -45.72960000     -29.19690000     -71.95200000
H      -47.72610000     -30.23120000     -73.18090000
C      -44.99050000     -29.78730000     -69.21790000
H      -45.27920000     -29.67760000     -68.13940000
H      -44.82660000     -28.75320000     -69.53970000
C      -48.90770000     -32.88230000     -69.61670000
H      -49.34780000     -32.41240000     -68.74530000
H      -49.61850000     -33.12200000     -70.41260000
S      -43.21890000     -30.64980000     -69.34850000
S      -48.23310000     -34.44330000     -69.00090000
C      -43.15410000     -31.38610000     -71.03710000
H      -43.68200000     -30.58890000     -71.64350000
H      -42.09070000     -31.36740000     -71.23560000
C      -47.32110000     -35.07240000     -70.45820000
H      -47.35170000     -34.29570000     -71.18120000
H      -47.86980000     -35.92990000     -70.84970000
C      -45.81270000     -35.35580000     -70.25250000
H      -45.32770000     -34.46980000     -69.83670000
H      -45.69680000     -36.18730000     -69.54890000
C      -43.88610000     -32.78440000     -70.97410000
H      -44.94230000     -32.61170000     -70.78000000
H      -43.48340000     -33.31620000     -70.15020000
C      -43.77900000     -33.60740000     -72.19810000
C      -42.94480000     -33.22960000     -73.24460000
C      -44.30340000     -34.97480000     -72.36510000
H      -42.31330000     -32.31200000     -73.30370000
C      -43.79530000     -35.58170000     -73.44000000
C      -45.11870000     -35.76570000     -71.53390000
C      -45.15720000     -37.06390000     -72.08990000
S      -42.62190000     -34.59100000     -74.36300000
S      -44.35210000     -37.19880000     -73.61160000
H      -45.66210000     -37.97640000     -71.70590000
