40
Properties=species:S:1:pos:R:3 #=T CELL(abcABC):=T 1.889726e+02=T 90.00000=T Traj:=T positionsangstrom=T Step:=T 0=T Bead:=T pbc="F F F"
C      -46.22860000     -34.75650000     -74.82040000
C      -46.90210000     -35.24240000     -73.65340000
C      -46.09360000     -35.87420000     -72.67010000
C      -44.77840000     -36.23040000     -72.93990000
C      -44.14310000     -35.76020000     -74.09290000
C      -44.87340000     -35.05310000     -75.01010000
H      -46.80210000     -34.28480000     -75.55740000
H      -46.56640000     -36.30080000     -71.81120000
H      -43.08300000     -36.05500000     -74.13750000
H      -44.39500000     -34.64400000     -75.95860000
C      -44.00810000     -37.02850000     -71.82050000
H      -43.59890000     -37.97930000     -72.26940000
H      -44.64730000     -37.34470000     -70.98380000
C      -48.31390000     -34.98700000     -73.62450000
H      -48.52680000     -34.15830000     -74.35810000
H      -48.97810000     -35.77960000     -73.83230000
S      -42.53890000     -36.04970000     -71.18640000
S      -49.05090000     -34.30190000     -72.03330000
C      -43.16620000     -34.44140000     -70.55060000
H      -44.06690000     -34.68800000     -69.97090000
H      -42.27800000     -34.14470000     -69.90020000
C      -47.83480000     -32.94930000     -71.49510000
H      -48.47760000     -32.16670000     -71.17130000
H      -47.26830000     -32.62020000     -72.37320000
C      -46.96770000     -33.41440000     -70.28690000
H      -47.65700000     -33.82030000     -69.54340000
H      -46.38370000     -34.27900000     -70.57510000
C      -43.58000000     -33.44190000     -71.66580000
H      -44.39930000     -33.72440000     -72.31280000
H      -42.80040000     -33.26790000     -72.39510000
C      -43.82440000     -32.08400000     -70.99150000
C      -42.92150000     -31.09550000     -71.06890000
C      -44.94810000     -31.70090000     -70.09060000
H      -42.05140000     -31.20970000     -71.65220000
C      -44.71820000     -30.53440000     -69.37620000
C      -46.19210000     -32.27720000     -69.62160000
C      -46.81780000     -31.55160000     -68.59590000
S      -43.20480000     -29.75660000     -69.85580000
S      -46.00420000     -30.04770000     -68.31830000
H      -47.88950000     -31.63840000     -68.37350000
