40
Properties=species:S:1:pos:R:3 #=T CELL(abcABC):=T 1.889726e+02=T 90.00000=T Traj:=T positionsangstrom=T Step:=T 0=T Bead:=T pbc="F F F"
C      -42.63570000     -37.18160000     -70.44430000
C      -43.76520000     -36.38830000     -70.14570000
C      -43.52470000     -35.07290000     -69.82700000
C      -42.17520000     -34.57510000     -69.58440000
C      -41.13020000     -35.43460000     -69.71830000
C      -41.35440000     -36.76130000     -70.21670000
H      -42.72610000     -38.25370000     -70.74170000
H      -44.40290000     -34.45300000     -69.78110000
H      -40.11790000     -35.06480000     -69.58790000
H      -40.45790000     -37.41580000     -70.25280000
C      -42.05190000     -33.13910000     -69.12930000
H      -41.11630000     -32.99740000     -68.61790000
H      -42.88300000     -32.88820000     -68.44050000
C      -45.17180000     -36.99750000     -70.31550000
H      -45.20820000     -37.98040000     -69.82850000
H      -46.00550000     -36.48260000     -69.87260000
S      -42.11230000     -31.92370000     -70.55920000
S      -45.66650000     -37.15450000     -72.06650000
C      -43.68770000     -30.99680000     -70.10120000
H      -43.57210000     -30.67920000     -69.04010000
H      -43.75990000     -30.08200000     -70.69520000
C      -46.91840000     -35.77470000     -72.17710000
H      -47.74940000     -36.02870000     -71.47780000
H      -47.37390000     -35.86290000     -73.21710000
C      -46.41100000     -34.35970000     -71.91380000
H      -46.44490000     -34.15590000     -70.87510000
H      -45.32270000     -34.18090000     -72.16580000
C      -44.98510000     -31.81900000     -70.36970000
H      -45.37100000     -32.23320000     -69.44320000
H      -44.61720000     -32.56480000     -71.09250000
C      -46.15890000     -31.11160000     -71.15900000
C      -46.51850000     -29.81290000     -70.94280000
C      -47.01230000     -31.77480000     -72.09520000
H      -45.98990000     -29.11810000     -70.24070000
C      -48.00000000     -30.93790000     -72.61840000
C      -47.18610000     -33.15470000     -72.55060000
C      -48.26980000     -33.35300000     -73.37500000
S      -48.01450000     -29.33950000     -71.84580000
S      -49.08670000     -31.76110000     -73.67350000
H      -48.38930000     -34.28220000     -73.99610000
