40
Properties=species:S:1:pos:R:3 #=T CELL(abcABC):=T 1.889726e+02=T 90.00000=T Traj:=T positionsangstrom=T Step:=T 0=T Bead:=T pbc="F F F"
C      -48.29940000     -31.39240000     -71.48460000
C      -47.94490000     -31.82060000     -70.15180000
C      -46.87560000     -31.24990000     -69.44660000
C      -46.09450000     -30.28500000     -70.07470000
C      -46.34250000     -29.96610000     -71.39630000
C      -47.43190000     -30.49320000     -72.04660000
H      -49.22950000     -31.74360000     -71.88460000
H      -46.73580000     -31.49530000     -68.40430000
H      -45.70650000     -29.22550000     -71.90810000
H      -47.67240000     -30.28570000     -73.05980000
C      -44.93240000     -29.62970000     -69.30870000
H      -45.14240000     -29.59140000     -68.27100000
H      -44.78550000     -28.62210000     -69.66870000
C      -48.91250000     -32.78290000     -69.46550000
H      -49.29230000     -32.24530000     -68.60610000
H      -49.80250000     -32.98820000     -70.17080000
S      -43.27660000     -30.59680000     -69.27320000
S      -48.11060000     -34.31690000     -68.93960000
C      -43.04360000     -31.41960000     -70.99130000
H      -43.37890000     -30.73740000     -71.76490000
H      -41.97040000     -31.69610000     -71.08600000
C      -47.35870000     -34.98930000     -70.48840000
H      -47.49450000     -34.20930000     -71.30390000
H      -47.89360000     -35.85920000     -70.81640000
C      -45.90610000     -35.41310000     -70.33500000
H      -45.40100000     -34.62570000     -69.71200000
H      -45.79690000     -36.22620000     -69.68810000
C      -43.83280000     -32.84760000     -70.97320000
H      -44.92450000     -32.59790000     -70.92520000
H      -43.57670000     -33.30530000     -70.00730000
C      -43.56370000     -33.75950000     -72.15810000
C      -42.67970000     -33.53630000     -73.19870000
C      -44.26060000     -35.04710000     -72.39490000
H      -41.91540000     -32.77460000     -73.16910000
C      -43.83790000     -35.69710000     -73.50810000
C      -45.23790000     -35.76080000     -71.62950000
C      -45.35140000     -37.05080000     -72.18010000
S      -42.70680000     -34.70290000     -74.50080000
S      -44.39260000     -37.27070000     -73.63270000
H      -46.04810000     -37.82900000     -71.95090000
