40
Properties=species:S:1:pos:R:3 #=T CELL(abcABC):=T 1.889726e+02=T 90.00000=T Traj:=T positionsangstrom=T Step:=T 0=T Bead:=T pbc="F F F"
C      -48.00530000     -31.48340000     -71.63980000
C      -48.09550000     -31.92650000     -70.29050000
C      -47.06040000     -31.42130000     -69.37780000
C      -46.28650000     -30.38960000     -69.84220000
C      -46.33180000     -29.86890000     -71.16810000
C      -47.16610000     -30.48140000     -72.08160000
H      -48.77850000     -31.94710000     -72.30560000
H      -46.92690000     -31.78350000     -68.35700000
H      -45.72800000     -29.00550000     -71.43880000
H      -47.17370000     -30.18310000     -73.13970000
C      -45.18030000     -29.80320000     -69.01770000
H      -45.32100000     -29.88630000     -67.95200000
H      -45.08350000     -28.72130000     -69.16150000
C      -49.07680000     -32.94700000     -69.84440000
H      -49.59040000     -32.62960000     -68.86450000
H      -49.78500000     -33.06830000     -70.65760000
S      -43.45800000     -30.52910000     -69.14660000
S      -48.25790000     -34.67710000     -69.32250000
C      -43.26690000     -31.34420000     -70.75250000
H      -43.41180000     -30.64100000     -71.60120000
H      -42.17820000     -31.60330000     -70.83810000
C      -47.01360000     -35.07360000     -70.61850000
H      -46.88210000     -34.22510000     -71.27540000
H      -47.57000000     -35.79090000     -71.26880000
C      -45.67460000     -35.56680000     -70.20430000
H      -45.14780000     -34.83800000     -69.68500000
H      -45.68240000     -36.49810000     -69.55520000
C      -43.99360000     -32.60320000     -70.95300000
H      -45.11180000     -32.40720000     -70.92380000
H      -43.90690000     -33.35340000     -70.11870000
C      -43.71380000     -33.53300000     -72.14730000
C      -43.08290000     -33.09110000     -73.29970000
C      -44.19610000     -34.92720000     -72.36930000
H      -42.69540000     -32.10730000     -73.54790000
C      -43.70960000     -35.53190000     -73.47710000
C      -44.88900000     -35.92700000     -71.54360000
C      -44.86340000     -37.16420000     -72.04200000
S      -42.81480000     -34.42140000     -74.47960000
S      -44.08480000     -37.25970000     -73.61080000
H      -45.26630000     -38.05810000     -71.62650000
