40
Properties=species:S:1:pos:R:3 #=T CELL(abcABC):=T 1.889726e+02=T 90.00000=T Traj:=T positionsangstrom=T Step:=T 0=T Bead:=T pbc="F F F"
C      -48.13970000     -31.48050000     -71.50310000
C      -48.10370000     -31.93740000     -70.12120000
C      -47.10670000     -31.38580000     -69.35510000
C      -46.21820000     -30.46500000     -69.88980000
C      -46.33180000     -29.93100000     -71.19120000
C      -47.23850000     -30.55570000     -72.01050000
H      -48.86780000     -31.98490000     -72.09830000
H      -46.92340000     -31.70030000     -68.31410000
H      -45.73060000     -29.12020000     -71.48210000
H      -47.24910000     -30.24080000     -73.05560000
C      -45.23790000     -29.89920000     -68.89960000
H      -45.55950000     -30.04030000     -67.85920000
H      -45.16390000     -28.88780000     -69.18860000
C      -49.00260000     -33.08530000     -69.84250000
H      -49.61350000     -32.91320000     -68.97100000
H      -49.73790000     -33.32380000     -70.67610000
S      -43.49940000     -30.67250000     -69.12530000
S      -48.11370000     -34.67280000     -69.46520000
C      -43.55280000     -31.36240000     -70.79960000
H      -44.19900000     -30.88680000     -71.52270000
H      -42.50800000     -31.31560000     -71.07440000
C      -46.96810000     -34.79510000     -70.85470000
H      -46.62500000     -33.75620000     -71.11890000
H      -47.45850000     -35.30190000     -71.71050000
C      -45.72990000     -35.61390000     -70.33850000
H      -45.30270000     -34.86220000     -69.55310000
H      -45.96590000     -36.59870000     -69.86020000
C      -44.02600000     -32.84100000     -70.76850000
H      -45.10030000     -32.87440000     -70.61730000
H      -43.49920000     -33.34890000     -69.96640000
C      -43.72850000     -33.50680000     -72.09040000
C      -43.09290000     -33.04460000     -73.24910000
C      -44.09900000     -34.88980000     -72.27890000
H      -42.70800000     -32.03470000     -73.47440000
C      -43.60810000     -35.46310000     -73.47670000
C      -44.88770000     -35.90030000     -71.55200000
C      -44.83650000     -37.14370000     -72.06950000
S      -42.78950000     -34.28840000     -74.46950000
S      -44.05890000     -37.15910000     -73.64780000
H      -45.32140000     -37.97160000     -71.56340000
