40
Properties=species:S:1:pos:R:3 #=T CELL(abcABC):=T 1.889726e+02=T 90.00000=T Traj:=T positionsangstrom=T Step:=T 0=T Bead:=T pbc="F F F"
C      -48.26710000     -32.10540000     -71.44510000
C      -48.12500000     -32.30710000     -70.06880000
C      -47.10060000     -31.61780000     -69.41730000
C      -46.42110000     -30.56200000     -70.07300000
C      -46.58760000     -30.33490000     -71.45930000
C      -47.43670000     -31.18850000     -72.14520000
H      -48.99410000     -32.65970000     -72.09780000
H      -46.90360000     -31.82760000     -68.36290000
H      -45.94590000     -29.69600000     -72.07800000
H      -47.33810000     -31.29830000     -73.23430000
C      -45.32370000     -29.74790000     -69.45020000
H      -45.79820000     -29.11320000     -68.71400000
H      -44.88930000     -28.99760000     -70.16490000
C      -48.87640000     -33.43990000     -69.34980000
H      -49.17550000     -33.10640000     -68.36970000
H      -49.83420000     -33.79620000     -69.77880000
S      -43.98610000     -30.74800000     -68.66750000
S      -47.74250000     -34.89960000     -68.97270000
C      -43.29880000     -31.71230000     -70.14310000
H      -43.23210000     -30.90490000     -70.89070000
H      -42.35460000     -31.93400000     -69.81590000
C      -47.02020000     -35.13310000     -70.67290000
H      -46.88010000     -34.22190000     -71.14450000
H      -47.75590000     -35.77080000     -71.16730000
C      -45.66160000     -35.87010000     -70.60010000
H      -44.96530000     -35.41270000     -69.86230000
H      -45.73780000     -36.89450000     -70.23660000
C      -44.03800000     -32.93180000     -70.61440000
H      -45.14190000     -32.81190000     -70.64640000
H      -43.76100000     -33.72420000     -69.90000000
C      -43.56740000     -33.42500000     -71.91810000
C      -42.85960000     -32.75210000     -72.84660000
C      -44.04960000     -34.75670000     -72.45070000
H      -42.43550000     -31.82510000     -72.62060000
C      -43.58770000     -34.96640000     -73.73290000
C      -44.93630000     -35.87480000     -71.96450000
C      -45.04670000     -36.83960000     -72.93500000
S      -42.54070000     -33.69410000     -74.26690000
S      -44.10340000     -36.46040000     -74.42820000
H      -45.70210000     -37.69450000     -73.00270000
