40
Properties=species:S:1:pos:R:3 #=T CELL(abcABC):=T 1.889726e+02=T 90.00000=T Traj:=T positionsangstrom=T Step:=T 0=T Bead:=T pbc="F F F"
C      -48.22890000     -31.95030000     -71.43160000
C      -48.04910000     -32.19980000     -70.05290000
C      -47.09320000     -31.38670000     -69.36280000
C      -46.34630000     -30.49660000     -70.09040000
C      -46.51790000     -30.20590000     -71.44030000
C      -47.49810000     -30.97860000     -72.11450000
H      -48.91330000     -32.57270000     -72.02020000
H      -46.98650000     -31.57720000     -68.34260000
H      -46.06300000     -29.36160000     -71.93020000
H      -47.88170000     -30.80500000     -73.12690000
C      -45.32420000     -29.72350000     -69.32120000
H      -45.77770000     -29.18110000     -68.45860000
H      -44.78030000     -28.99320000     -69.96070000
C      -48.84320000     -33.30790000     -69.38810000
H      -49.25090000     -32.98550000     -68.38970000
H      -49.61990000     -33.81870000     -69.99360000
S      -44.09200000     -31.00300000     -68.62770000
S      -47.57590000     -34.64610000     -69.07170000
C      -43.29000000     -31.69640000     -70.20040000
H      -43.48920000     -30.92940000     -70.96140000
H      -42.21690000     -31.73450000     -69.96930000
C      -46.86440000     -35.01240000     -70.69890000
H      -46.53570000     -33.98860000     -71.06510000
H      -47.69000000     -35.33050000     -71.35740000
C      -45.63430000     -35.92270000     -70.60770000
H      -44.99120000     -35.59880000     -69.84480000
H      -45.99580000     -36.86990000     -70.43680000
C      -43.99440000     -33.03900000     -70.57760000
H      -45.04190000     -32.79040000     -70.49240000
H      -43.69810000     -33.82990000     -69.87670000
C      -43.78600000     -33.46640000     -71.94360000
C      -43.00800000     -32.84190000     -72.87240000
C      -44.24050000     -34.80220000     -72.47900000
H      -42.44840000     -31.91020000     -72.70300000
C      -43.65190000     -35.08350000     -73.72950000
C      -44.85670000     -35.99190000     -71.90250000
C      -44.88180000     -37.03290000     -72.83940000
S      -42.75830000     -33.66300000     -74.39770000
S      -43.98940000     -36.69270000     -74.34960000
H      -45.23180000     -38.05230000     -72.40850000
