40
Properties=species:S:1:pos:R:3 #=T CELL(abcABC):=T 1.889726e+02=T 90.00000=T Traj:=T positionsangstrom=T Step:=T 0=T Bead:=T pbc="F F F"
C      -48.24990000     -32.02450000     -71.45700000
C      -48.10660000     -32.15500000     -70.03150000
C      -47.19030000     -31.32170000     -69.40420000
C      -46.42110000     -30.37930000     -70.11110000
C      -46.54540000     -30.24680000     -71.53290000
C      -47.45700000     -31.11360000     -72.15990000
H      -48.87370000     -32.73370000     -72.04570000
H      -47.05630000     -31.48660000     -68.39670000
H      -45.88170000     -29.70220000     -72.18450000
H      -47.67160000     -31.05160000     -73.26190000
C      -45.28970000     -29.76320000     -69.35280000
H      -45.68950000     -29.16270000     -68.48740000
H      -44.67870000     -29.15980000     -69.95580000
C      -48.78000000     -33.39850000     -69.22770000
H      -48.97310000     -32.97190000     -68.25330000
H      -49.73310000     -33.75880000     -69.65790000
S      -44.05840000     -30.90400000     -68.58580000
S      -47.60870000     -34.81640000     -69.05610000
C      -43.36290000     -31.66990000     -70.16130000
H      -43.29780000     -31.00970000     -71.06530000
H      -42.31750000     -31.85990000     -69.96210000
C      -46.92320000     -35.11240000     -70.78250000
H      -46.69630000     -34.14980000     -71.26440000
H      -47.60640000     -35.60730000     -71.53760000
C      -45.67350000     -35.97480000     -70.57000000
H      -45.10870000     -35.52750000     -69.69800000
H      -45.93360000     -36.99820000     -70.15550000
C      -44.05780000     -32.94440000     -70.65350000
H      -45.14610000     -32.82170000     -70.61560000
H      -43.98310000     -33.73350000     -69.95500000
C      -43.65250000     -33.53020000     -71.97070000
C      -42.89030000     -32.82660000     -72.87890000
C      -44.07470000     -34.81220000     -72.46850000
H      -42.39710000     -31.87750000     -72.79060000
C      -43.52950000     -35.08020000     -73.69900000
C      -44.83350000     -35.88810000     -71.91280000
C      -45.01910000     -36.88210000     -72.88060000
S      -42.65870000     -33.69520000     -74.34640000
S      -44.10710000     -36.56050000     -74.35520000
H      -45.63610000     -37.80890000     -72.92450000
