40
Properties=species:S:1:pos:R:3 #=T CELL(abcABC):=T 1.889726e+02=T 90.00000=T Traj:=T positionsangstrom=T Step:=T 0=T Bead:=T pbc="F F F"
C      -46.30820000     -33.66210000     -75.53690000
C      -46.85290000     -34.36220000     -74.41690000
C      -45.95240000     -35.14620000     -73.68630000
C      -44.60710000     -35.26630000     -73.99700000
C      -44.08870000     -34.54960000     -75.05030000
C      -44.98190000     -33.95800000     -75.87930000
H      -46.95250000     -33.13080000     -76.16650000
H      -46.37450000     -35.67890000     -72.82260000
H      -43.13730000     -34.73070000     -75.45980000
H      -44.52000000     -33.56800000     -76.75560000
C      -43.76340000     -36.24070000     -73.27280000
H      -43.33420000     -36.96630000     -74.02690000
H      -44.19280000     -36.85180000     -72.50080000
C      -48.29960000     -34.08000000     -74.01310000
H      -48.55940000     -32.99050000     -74.25370000
H      -49.08100000     -34.65070000     -74.60000000
S      -42.22170000     -35.71440000     -72.43600000
S      -48.73670000     -34.31430000     -72.26890000
C      -42.90850000     -34.66390000     -71.01080000
H      -43.44880000     -35.29850000     -70.31270000
H      -41.96270000     -34.29100000     -70.53880000
C      -47.65640000     -33.18680000     -71.24880000
H      -48.16930000     -32.18250000     -70.97570000
H      -46.70940000     -32.88030000     -71.83040000
C      -47.29870000     -33.81850000     -69.85790000
H      -48.26550000     -34.06870000     -69.41690000
H      -46.55910000     -34.63360000     -70.03500000
C      -43.82870000     -33.48190000     -71.41300000
H      -44.76580000     -33.85800000     -71.81180000
H      -43.32470000     -32.93180000     -72.19780000
C      -44.10280000     -32.43200000     -70.26120000
C      -43.07640000     -31.55980000     -70.02720000
C      -45.17210000     -32.33680000     -69.31350000
H      -42.10980000     -31.71000000     -70.49690000
C      -44.87020000     -31.34860000     -68.36080000
C      -46.51970000     -32.80120000     -69.03890000
C      -47.08370000     -32.23020000     -67.94840000
S      -43.31110000     -30.61190000     -68.58100000
S      -46.14340000     -30.91340000     -67.23260000
H      -48.05290000     -32.50650000     -67.48530000
