40
Properties=species:S:1:pos:R:3 #=T CELL(abcABC):=T 1.889726e+02=T 90.00000=T Traj:=T positionsangstrom=T Step:=T 0=T Bead:=T pbc="F F F"
C      -46.16660000     -33.58990000     -75.38050000
C      -46.76200000     -34.19420000     -74.25120000
C      -45.91070000     -35.11540000     -73.51640000
C      -44.64090000     -35.46220000     -74.02930000
C      -44.19120000     -34.94230000     -75.23270000
C      -44.96890000     -34.05840000     -75.91590000
H      -46.64990000     -32.72620000     -75.68970000
H      -46.20080000     -35.64510000     -72.59970000
H      -43.24660000     -35.08660000     -75.59020000
H      -44.61770000     -33.66120000     -76.87190000
C      -43.83450000     -36.49440000     -73.20080000
H      -43.44950000     -37.26440000     -73.84000000
H      -44.52460000     -36.86810000     -72.46510000
C      -48.16340000     -33.75680000     -73.87580000
H      -48.33250000     -32.69380000     -73.93220000
H      -48.82080000     -34.21060000     -74.57850000
S      -42.37580000     -35.55500000     -72.53850000
S      -48.68070000     -34.33000000     -72.16980000
C      -42.91590000     -34.67360000     -70.96740000
H      -43.35150000     -35.30830000     -70.15220000
H      -41.99380000     -34.23650000     -70.58200000
C      -47.64740000     -33.20270000     -71.20660000
H      -48.15620000     -32.36250000     -70.87950000
H      -46.92450000     -32.90410000     -71.96250000
C      -47.08930000     -33.90570000     -69.98610000
H      -47.86010000     -34.49930000     -69.42580000
H      -46.39130000     -34.67910000     -70.27320000
C      -43.95270000     -33.51430000     -71.30310000
H      -44.96260000     -34.00730000     -71.43540000
H      -43.78450000     -33.05050000     -72.26750000
C      -43.96890000     -32.45660000     -70.21320000
C      -42.97330000     -31.57680000     -69.88560000
C      -45.11780000     -32.23930000     -69.39180000
H      -42.01730000     -31.62710000     -70.36830000
C      -44.91360000     -31.24880000     -68.43670000
C      -46.43190000     -32.86710000     -69.13230000
C      -47.12750000     -32.25320000     -68.13990000
S      -43.43130000     -30.41880000     -68.67200000
S      -46.14980000     -31.07920000     -67.26890000
H      -48.17690000     -32.45080000     -67.80150000
