40
Properties=species:S:1:pos:R:3 #=T CELL(abcABC):=T 1.889726e+02=T 90.00000=T Traj:=T positionsangstrom=T Step:=T 0=T Bead:=T pbc="F F F"
C      -48.65430000     -30.84590000     -71.20920000
C      -48.20440000     -31.85130000     -70.25260000
C      -47.00750000     -31.58270000     -69.58170000
C      -46.29100000     -30.35170000     -69.69590000
C      -46.70380000     -29.43260000     -70.72310000
C      -47.82730000     -29.69890000     -71.50960000
H      -49.52660000     -31.00210000     -71.79360000
H      -46.76750000     -32.37610000     -68.81620000
H      -46.16260000     -28.57990000     -71.07020000
H      -48.09030000     -29.04440000     -72.29590000
C      -45.07700000     -30.18360000     -68.78420000
H      -45.44480000     -29.68280000     -67.91100000
H      -44.43980000     -29.34790000     -69.20000000
C      -48.98790000     -33.16880000     -70.04880000
H      -49.78910000     -33.12130000     -69.30610000
H      -49.51700000     -33.48690000     -71.01840000
S      -44.08130000     -31.69940000     -68.31980000
S      -47.92500000     -34.54320000     -69.63170000
C      -43.35490000     -32.19390000     -69.93990000
H      -42.54760000     -31.59970000     -70.32910000
H      -42.85860000     -33.14470000     -69.76960000
C      -47.25060000     -34.99840000     -71.29960000
H      -46.89580000     -34.15040000     -71.87720000
H      -48.03430000     -35.47190000     -71.97550000
C      -45.97520000     -35.88320000     -70.99920000
H      -45.59950000     -35.59970000     -70.07960000
H      -46.40230000     -36.83180000     -70.88790000
C      -44.45740000     -32.66140000     -70.95470000
H      -44.87330000     -31.80120000     -71.41170000
H      -45.15960000     -33.38790000     -70.46820000
C      -43.74180000     -33.48040000     -72.12630000
C      -42.70180000     -32.98000000     -72.89160000
C      -44.20660000     -34.77100000     -72.66930000
H      -42.13170000     -32.05960000     -72.65110000
C      -43.43830000     -35.12810000     -73.77100000
C      -44.90520000     -35.86610000     -72.10370000
C      -44.68300000     -37.03170000     -72.78210000
S      -42.14380000     -34.06540000     -74.15290000
S      -43.66550000     -36.88390000     -74.16590000
H      -45.26390000     -37.96600000     -72.63500000
