40
Properties=species:S:1:pos:R:3 #=T CELL(abcABC):=T 1.889726e+02=T 90.00000=T Traj:=T positionsangstrom=T Step:=T 0=T Bead:=T pbc="F F F"
C      -48.60830000     -31.22440000     -71.23670000
C      -48.13330000     -31.96450000     -70.15650000
C      -47.10890000     -31.44670000     -69.38030000
C      -46.30260000     -30.39980000     -69.89780000
C      -46.69870000     -29.78890000     -71.08720000
C      -47.94310000     -30.10040000     -71.68850000
H      -49.53780000     -31.55940000     -71.62700000
H      -46.89270000     -31.97180000     -68.41930000
H      -46.08100000     -29.04260000     -71.53540000
H      -48.18920000     -29.69470000     -72.58220000
C      -45.08820000     -29.97580000     -69.13220000
H      -45.38890000     -29.43770000     -68.19960000
H      -44.48760000     -29.28490000     -69.69370000
C      -48.97870000     -33.09970000     -69.59400000
H      -49.31560000     -32.98810000     -68.62160000
H      -49.90090000     -33.30140000     -70.12520000
S      -44.02480000     -31.29350000     -68.48320000
S      -47.96230000     -34.66790000     -69.59360000
C      -43.36480000     -32.04550000     -70.03480000
H      -43.26330000     -31.10630000     -70.62220000
H      -42.32360000     -32.39950000     -69.81700000
C      -47.09930000     -34.94850000     -71.13100000
H      -46.63650000     -34.03130000     -71.44140000
H      -47.75840000     -35.26850000     -71.93270000
C      -46.05620000     -36.09440000     -71.02120000
H      -45.55570000     -36.04800000     -69.94990000
H      -46.46980000     -37.17050000     -71.02340000
C      -44.29500000     -33.01110000     -70.63680000
H      -45.15670000     -32.52680000     -70.91180000
H      -44.47810000     -33.82520000     -69.92020000
C      -43.69070000     -33.54530000     -71.93630000
C      -42.69410000     -33.00030000     -72.73930000
C      -43.99390000     -34.84910000     -72.41730000
H      -42.25470000     -32.00300000     -72.41450000
C      -43.30450000     -35.16020000     -73.56250000
C      -45.00850000     -35.92110000     -72.15060000
C      -44.94160000     -36.92950000     -73.08430000
S      -42.21230000     -33.94280000     -74.14640000
S      -43.68610000     -36.73830000     -74.27040000
H      -45.47160000     -37.84420000     -72.97590000
