40
Properties=species:S:1:pos:R:3 #=T CELL(abcABC):=T 1.889726e+02=T 90.00000=T Traj:=T positionsangstrom=T Step:=T 0=T Bead:=T pbc="F F F"
C      -47.81010000     -30.21280000     -71.27600000
C      -48.04430000     -31.49620000     -70.59950000
C      -47.23600000     -31.91170000     -69.52110000
C      -46.21410000     -31.05310000     -69.03030000
C      -46.01230000     -29.78220000     -69.66180000
C      -46.80700000     -29.39560000     -70.75100000
H      -48.37610000     -29.93010000     -72.20430000
H      -47.18120000     -33.01260000     -69.28010000
H      -45.14740000     -29.09680000     -69.35110000
H      -46.56520000     -28.48720000     -71.29230000
C      -45.25380000     -31.45380000     -67.94030000
H      -45.71320000     -31.62110000     -66.99690000
H      -44.55210000     -30.58230000     -67.70620000
C      -49.09790000     -32.42720000     -71.21760000
H      -50.07950000     -32.23460000     -70.67590000
H      -49.20130000     -32.17670000     -72.30820000
S      -44.54780000     -33.10790000     -68.26350000
S      -48.89420000     -34.30520000     -70.95010000
C      -43.43910000     -32.84840000     -69.70690000
H      -42.58020000     -32.24890000     -69.45610000
H      -42.95570000     -33.82330000     -69.81030000
C      -47.28140000     -34.67040000     -72.00800000
H      -47.11660000     -33.71120000     -72.44840000
H      -47.53420000     -35.47800000     -72.75490000
C      -46.12940000     -35.03920000     -71.10450000
H      -45.81210000     -34.13200000     -70.39480000
H      -46.45040000     -35.80450000     -70.47420000
C      -44.09150000     -32.32620000     -71.01090000
H      -43.81370000     -31.30440000     -71.19360000
H      -45.16960000     -32.38620000     -70.98050000
C      -43.68950000     -33.14730000     -72.22030000
C      -42.63170000     -32.64030000     -72.99540000
C      -44.01500000     -34.51550000     -72.46120000
H      -42.26620000     -31.63270000     -72.95190000
C      -43.14930000     -35.07950000     -73.43120000
C      -44.94710000     -35.51490000     -71.96920000
C      -44.91250000     -36.72380000     -72.65640000
S      -41.94860000     -33.85920000     -73.99510000
S      -43.55220000     -36.72530000     -73.75270000
H      -45.37130000     -37.66600000     -72.44940000
