40
Properties=species:S:1:pos:R:3 #=T CELL(abcABC):=T 1.889726e+02=T 90.00000=T Traj:=T positionsangstrom=T Step:=T 0=T Bead:=T pbc="F F F"
C      -46.50110000     -33.26950000     -75.18500000
C      -47.07460000     -34.13170000     -74.21920000
C      -46.24810000     -35.06250000     -73.58530000
C      -44.93250000     -35.25510000     -73.96630000
C      -44.33360000     -34.29850000     -74.81400000
C      -45.12090000     -33.26100000     -75.25680000
H      -47.12090000     -32.51450000     -75.67380000
H      -46.72390000     -35.78250000     -72.81830000
H      -43.28290000     -34.36810000     -74.96900000
H      -44.58930000     -32.57360000     -75.83790000
C      -44.07150000     -36.36670000     -73.48250000
H      -43.74760000     -36.92220000     -74.39230000
H      -44.71570000     -37.12720000     -72.98120000
C      -48.51520000     -34.06130000     -73.98900000
H      -48.89390000     -33.14510000     -74.46610000
H      -49.12160000     -34.92260000     -74.48180000
S      -42.70890000     -36.07520000     -72.26220000
S      -48.95600000     -34.30360000     -72.18550000
C      -43.43370000     -34.84650000     -71.01250000
H      -44.42530000     -35.23670000     -70.70120000
H      -42.73810000     -34.88830000     -70.12370000
C      -47.80540000     -33.11200000     -71.29350000
H      -48.50440000     -32.43990000     -70.84460000
H      -47.24600000     -32.47380000     -72.07720000
C      -46.84670000     -33.77170000     -70.32370000
H      -47.40140000     -34.53870000     -69.75240000
H      -46.02600000     -34.36550000     -70.82950000
C      -43.43610000     -33.37430000     -71.52160000
H      -44.21880000     -33.24410000     -72.31680000
H      -42.44720000     -33.12180000     -72.00020000
C      -43.70440000     -32.34740000     -70.43130000
C      -42.57260000     -31.64820000     -69.93270000
C      -44.88100000     -32.19590000     -69.59930000
H      -41.56760000     -31.60830000     -70.37690000
C      -44.62590000     -31.31350000     -68.51270000
C      -46.18130000     -32.78130000     -69.40260000
C      -46.77120000     -32.34360000     -68.21600000
S      -43.00000000     -30.71200000     -68.52190000
S      -45.83300000     -31.12560000     -67.37050000
H      -47.80750000     -32.65030000     -67.82080000
