40
Properties=species:S:1:pos:R:3 #=T CELL(abcABC):=T 1.889726e+02=T 90.00000=T Traj:=T positionsangstrom=T Step:=T 0=T Bead:=T pbc="F F F"
C      -46.64080000     -33.05350000     -74.60930000
C      -47.29680000     -34.04710000     -73.87660000
C      -46.62850000     -35.25440000     -73.57700000
C      -45.30850000     -35.44740000     -74.00530000
C      -44.68090000     -34.44980000     -74.82610000
C      -45.32780000     -33.25070000     -75.06650000
H      -47.02590000     -32.01860000     -74.57750000
H      -46.98700000     -35.92140000     -72.79180000
H      -43.75950000     -34.75260000     -75.27970000
H      -44.85810000     -32.40790000     -75.52590000
C      -44.38550000     -36.63420000     -73.48210000
H      -43.92890000     -37.27540000     -74.22510000
H      -45.01940000     -37.32840000     -72.92290000
C      -48.72950000     -33.82170000     -73.42920000
H      -49.05550000     -32.70150000     -73.38660000
H      -49.46640000     -34.37080000     -74.02300000
S      -42.77550000     -36.03310000     -72.72800000
S      -48.94490000     -34.37400000     -71.70880000
C      -43.15780000     -35.02220000     -71.24580000
H      -43.85810000     -35.61150000     -70.57250000
H      -42.23640000     -34.87480000     -70.69060000
C      -47.85280000     -33.17670000     -70.88020000
H      -48.46220000     -32.53110000     -70.31150000
H      -47.33330000     -32.53620000     -71.62360000
C      -46.74790000     -33.80000000     -69.98560000
H      -47.24980000     -34.53600000     -69.41580000
H      -46.04440000     -34.38080000     -70.62320000
C      -43.79320000     -33.64780000     -71.63730000
H      -44.86040000     -33.98560000     -71.74630000
H      -43.32340000     -33.37400000     -72.61280000
C      -43.74840000     -32.55220000     -70.60320000
C      -42.66320000     -31.70090000     -70.51210000
C      -44.69290000     -32.22730000     -69.54450000
H      -41.89890000     -31.68790000     -71.26660000
C      -44.21910000     -31.27800000     -68.67270000
C      -46.05580000     -32.68140000     -69.24290000
C      -46.54650000     -32.11490000     -68.09780000
S      -42.70160000     -30.60410000     -69.12490000
S      -45.47030000     -30.91910000     -67.42470000
H      -47.55700000     -32.15320000     -67.58400000
