40
Properties=species:S:1:pos:R:3 #=T CELL(abcABC):=T 1.889726e+02=T 90.00000=T Traj:=T positionsangstrom=T Step:=T 0=T Bead:=T pbc="F F F"
C      -46.85420000     -33.09040000     -74.63900000
C      -47.26860000     -34.03620000     -73.67480000
C      -46.47080000     -35.22490000     -73.45790000
C      -45.23070000     -35.30170000     -74.12360000
C      -44.83270000     -34.31480000     -75.05080000
C      -45.65260000     -33.22850000     -75.35880000
H      -47.46770000     -32.20110000     -74.75750000
H      -46.80010000     -35.89300000     -72.69610000
H      -43.81370000     -34.31510000     -75.55280000
H      -45.36130000     -32.57180000     -76.19450000
C      -44.35290000     -36.54330000     -73.86540000
H      -43.92110000     -36.89650000     -74.83050000
H      -44.90450000     -37.43460000     -73.44110000
C      -48.73050000     -33.95790000     -73.16250000
H      -49.14840000     -32.97470000     -73.32180000
H      -49.25700000     -34.72480000     -73.78510000
S      -42.97800000     -36.06030000     -72.65620000
S      -48.88810000     -34.56160000     -71.44270000
C      -43.62280000     -35.07710000     -71.28010000
H      -44.45790000     -35.61250000     -70.74650000
H      -42.85550000     -34.95760000     -70.45410000
C      -47.82600000     -33.28090000     -70.69320000
H      -48.38210000     -32.45750000     -70.19070000
H      -47.33020000     -32.77560000     -71.49990000
C      -46.77740000     -33.79200000     -69.66930000
H      -47.50990000     -34.28900000     -68.92570000
H      -46.21110000     -34.51610000     -70.20130000
C      -44.02850000     -33.63670000     -71.71770000
H      -45.05870000     -33.66630000     -72.01740000
H      -43.55560000     -33.43000000     -72.63830000
C      -43.81480000     -32.57810000     -70.69660000
C      -42.71320000     -31.73030000     -70.71200000
C      -44.66600000     -32.23000000     -69.61620000
H      -41.93440000     -31.79810000     -71.48240000
C      -44.08740000     -31.26530000     -68.77540000
C      -45.90850000     -32.70040000     -69.06350000
C      -46.23100000     -32.03770000     -67.93850000
S      -42.62940000     -30.53200000     -69.37160000
S      -45.10810000     -30.81240000     -67.41460000
H      -47.07300000     -32.38810000     -67.26980000
