40
Properties=species:S:1:pos:R:3 #=T CELL(abcABC):=T 1.889726e+02=T 90.00000=T Traj:=T positionsangstrom=T Step:=T 0=T Bead:=T pbc="F F F"
C      -46.85130000     -33.08320000     -74.79880000
C      -47.37100000     -34.03150000     -73.91000000
C      -46.55110000     -35.15370000     -73.58560000
C      -45.20600000     -35.29710000     -74.04000000
C      -44.65190000     -34.29630000     -74.82280000
C      -45.51400000     -33.22850000     -75.20330000
H      -47.53100000     -32.34980000     -75.26800000
H      -47.04510000     -35.93030000     -73.09510000
H      -43.54810000     -34.22240000     -75.01250000
H      -45.11170000     -32.45670000     -75.87310000
C      -44.45080000     -36.45540000     -73.54540000
H      -44.11810000     -37.17000000     -74.31840000
H      -45.12030000     -36.92280000     -72.85120000
C      -48.73290000     -34.00890000     -73.35650000
H      -49.20870000     -33.09630000     -73.62890000
H      -49.27310000     -34.75380000     -73.92110000
S      -42.84210000     -36.10930000     -72.64480000
S      -48.86920000     -34.44430000     -71.54260000
C      -43.47730000     -34.94580000     -71.29690000
H      -44.19780000     -35.44280000     -70.72910000
H      -42.58190000     -34.79580000     -70.71470000
C      -47.89870000     -33.22190000     -70.54800000
H      -48.59870000     -32.69860000     -69.85460000
H      -47.53610000     -32.46150000     -71.25190000
C      -46.83300000     -33.89740000     -69.74520000
H      -47.13100000     -34.59210000     -68.94520000
H      -46.14170000     -34.54680000     -70.32100000
C      -43.88910000     -33.57420000     -71.82060000
H      -44.94100000     -33.38570000     -72.09640000
H      -43.19830000     -33.28430000     -72.61690000
C      -43.76130000     -32.55010000     -70.69890000
C      -42.61090000     -31.78680000     -70.56840000
C      -44.64580000     -32.32350000     -69.54160000
H      -41.84880000     -31.82840000     -71.35370000
C      -44.16220000     -31.28870000     -68.79640000
C      -45.99640000     -32.78150000     -69.08030000
C      -46.37840000     -32.18730000     -67.93400000
S      -42.65660000     -30.61030000     -69.30250000
S      -45.28560000     -30.79000000     -67.49590000
H      -47.35600000     -32.33890000     -67.36020000
