40
Properties=species:S:1:pos:R:3 #=T CELL(abcABC):=T 1.889726e+02=T 90.00000=T Traj:=T positionsangstrom=T Step:=T 0=T Bead:=T pbc="F F F"
C      -47.01630000     -33.10790000     -74.56230000
C      -47.37670000     -34.17920000     -73.75070000
C      -46.55170000     -35.30820000     -73.61050000
C      -45.33730000     -35.43320000     -74.27290000
C      -44.90840000     -34.34390000     -75.12500000
C      -45.77840000     -33.30990000     -75.25570000
H      -47.62900000     -32.22770000     -74.66130000
H      -46.89440000     -36.17330000     -72.95720000
H      -44.07250000     -34.30220000     -75.78720000
H      -45.44150000     -32.47720000     -75.83290000
C      -44.42030000     -36.49950000     -73.86410000
H      -43.95390000     -36.87070000     -74.72480000
H      -44.88460000     -37.29950000     -73.35860000
C      -48.73830000     -34.21640000     -73.11200000
H      -49.20990000     -33.20710000     -73.18690000
H      -49.46800000     -34.93400000     -73.41190000
S      -42.96460000     -36.00130000     -72.75340000
S      -48.73350000     -34.48240000     -71.27580000
C      -43.77030000     -35.02390000     -71.39610000
H      -44.64320000     -35.59610000     -71.13240000
H      -43.05730000     -35.07060000     -70.62400000
C      -47.68620000     -33.07540000     -70.54310000
H      -48.32740000     -32.33600000     -70.08120000
H      -47.18180000     -32.67010000     -71.38970000
C      -46.81060000     -33.78000000     -69.56410000
H      -47.43300000     -34.15150000     -68.72420000
H      -46.17370000     -34.51660000     -69.96230000
C      -44.15250000     -33.58740000     -71.85720000
H      -45.20320000     -33.59930000     -72.26320000
H      -43.47020000     -33.22900000     -72.69530000
C      -43.90250000     -32.52030000     -70.75090000
C      -42.76030000     -31.69170000     -70.81220000
C      -44.63640000     -32.14270000     -69.61900000
H      -41.98810000     -31.81770000     -71.53740000
C      -44.01340000     -31.22920000     -68.70410000
C      -45.86100000     -32.63200000     -68.99120000
C      -46.20710000     -31.93640000     -67.86720000
S      -42.53530000     -30.68410000     -69.42860000
S      -45.01470000     -30.80740000     -67.37710000
H      -47.08640000     -32.24850000     -67.32750000
