40
Properties=species:S:1:pos:R:3 #=T CELL(abcABC):=T 1.889726e+02=T 90.00000=T Traj:=T positionsangstrom=T Step:=T 0=T Bead:=T pbc="F F F"
C      -47.77290000     -34.44480000     -74.83660000
C      -47.86300000     -34.72440000     -73.47260000
C      -46.86530000     -35.52180000     -72.91580000
C      -45.68250000     -35.82580000     -73.59790000
C      -45.55730000     -35.39750000     -74.92940000
C      -46.59820000     -34.64490000     -75.56470000
H      -48.61530000     -33.95560000     -75.36460000
H      -47.03970000     -35.86230000     -71.87000000
H      -44.69270000     -35.74570000     -75.43890000
H      -46.53330000     -34.33580000     -76.62710000
C      -44.74180000     -36.76370000     -72.92270000
H      -44.47170000     -37.64460000     -73.56220000
H      -45.13190000     -37.07330000     -71.94960000
C      -49.11210000     -34.28880000     -72.72440000
H      -49.43150000     -33.30600000     -73.03120000
H      -49.96270000     -34.94630000     -72.74940000
S      -42.99820000     -36.20210000     -72.58570000
S      -48.97360000     -34.15870000     -70.84540000
C      -42.98060000     -34.68770000     -71.42590000
H      -43.32300000     -35.06690000     -70.46240000
H      -41.94810000     -34.42170000     -71.16830000
C      -47.73090000     -32.81290000     -70.30600000
H      -48.23420000     -32.03350000     -69.62160000
H      -47.37230000     -32.25650000     -71.17620000
C      -46.58480000     -33.42250000     -69.47390000
H      -46.94170000     -33.83590000     -68.53420000
H      -46.17030000     -34.30510000     -70.07650000
C      -43.80500000     -33.56440000     -71.94930000
H      -44.87540000     -33.70550000     -72.03560000
H      -43.53550000     -33.19270000     -72.90150000
C      -43.56190000     -32.35410000     -70.99060000
C      -42.43720000     -31.59750000     -71.22850000
C      -44.38450000     -31.94530000     -69.83200000
H      -41.77310000     -31.85380000     -72.03270000
C      -43.81610000     -30.80760000     -69.25500000
C      -45.53550000     -32.39640000     -69.11580000
C      -45.82180000     -31.53830000     -68.02130000
S      -42.28400000     -30.25170000     -70.11160000
S      -44.62640000     -30.27000000     -67.81920000
H      -46.70110000     -31.52400000     -67.35350000
