40
Properties=species:S:1:pos:R:3 #=T CELL(abcABC):=T 1.889726e+02=T 90.00000=T Traj:=T positionsangstrom=T Step:=T 0=T Bead:=T pbc="F F F"
C      -43.00970000     -37.37980000     -70.58960000
C      -44.07040000     -36.55630000     -70.29900000
C      -43.81680000     -35.27020000     -69.85900000
C      -42.54930000     -34.89210000     -69.48470000
C      -41.48550000     -35.70730000     -69.82970000
C      -41.66950000     -36.97980000     -70.35210000
H      -43.20030000     -38.37220000     -71.04790000
H      -44.62770000     -34.54540000     -69.67670000
H      -40.49920000     -35.36220000     -69.63220000
H      -40.78260000     -37.49940000     -70.67700000
C      -42.24390000     -33.44600000     -68.93360000
H      -41.38830000     -33.51470000     -68.21580000
H      -43.06330000     -33.01150000     -68.34770000
C      -45.42950000     -37.05680000     -70.61670000
H      -45.56980000     -38.09990000     -70.20270000
H      -46.17970000     -36.43420000     -70.13960000
S      -41.84670000     -32.27240000     -70.29040000
S      -45.73030000     -37.00050000     -72.49060000
C      -43.37180000     -31.09350000     -70.42660000
H      -43.50720000     -30.45730000     -69.54560000
H      -43.17030000     -30.36080000     -71.24330000
C      -46.93640000     -35.54820000     -72.77030000
H      -47.77890000     -35.70890000     -72.15070000
H      -47.24330000     -35.51650000     -73.85670000
C      -46.19880000     -34.20260000     -72.32930000
H      -45.96530000     -34.30570000     -71.26650000
H      -45.27160000     -34.05050000     -72.88420000
C      -44.68430000     -31.84270000     -70.66890000
H      -44.86100000     -32.34870000     -69.70560000
H      -44.39300000     -32.60680000     -71.41420000
C      -45.93410000     -31.08070000     -71.08030000
C      -46.19700000     -29.73170000     -70.88620000
C      -46.96530000     -31.69840000     -71.88190000
H      -45.63030000     -29.09080000     -70.23930000
C      -48.01660000     -30.79390000     -72.11260000
C      -47.16570000     -33.04170000     -72.53370000
C      -48.31150000     -32.98310000     -73.31530000
S      -47.73890000     -29.18490000     -71.53650000
S      -49.14300000     -31.46100000     -73.19730000
H      -48.67310000     -33.85250000     -73.85230000
