40
Properties=species:S:1:pos:R:3 #=T CELL(abcABC):=T 1.889726e+02=T 90.00000=T Traj:=T positionsangstrom=T Step:=T 0=T Bead:=T pbc="F F F"
C      -47.46390000     -34.12880000     -74.64890000
C      -47.71620000     -34.58360000     -73.39520000
C      -46.80040000     -35.45990000     -72.86400000
C      -45.75890000     -35.97920000     -73.66420000
C      -45.62350000     -35.60250000     -74.98060000
C      -46.45160000     -34.60040000     -75.47820000
H      -48.19170000     -33.40140000     -74.98690000
H      -46.91210000     -35.67150000     -71.82490000
H      -44.71840000     -36.07110000     -75.47550000
H      -46.39310000     -34.15780000     -76.43660000
C      -44.69760000     -36.86970000     -72.99080000
H      -44.62690000     -37.78590000     -73.58140000
H      -45.19840000     -37.17530000     -72.06140000
C      -48.96270000     -34.25630000     -72.63030000
H      -49.41280000     -33.36540000     -73.14560000
H      -49.55380000     -35.08480000     -73.05570000
S      -43.02600000     -36.09880000     -72.79490000
S      -48.84060000     -34.23260000     -70.85280000
C      -43.23240000     -34.80660000     -71.45950000
H      -43.66750000     -35.28630000     -70.58180000
H      -42.13150000     -34.49520000     -71.20080000
C      -47.59460000     -32.90900000     -70.53380000
H      -48.10600000     -32.07340000     -70.14690000
H      -47.25040000     -32.66760000     -71.55790000
C      -46.46220000     -33.39510000     -69.62100000
H      -46.98460000     -33.89570000     -68.83670000
H      -45.80430000     -34.12900000     -70.14080000
C      -44.02060000     -33.51780000     -71.86810000
H      -45.09430000     -33.80320000     -72.03440000
H      -43.63460000     -33.38150000     -72.89710000
C      -43.68960000     -32.30070000     -71.00920000
C      -42.58800000     -31.52380000     -71.17400000
C      -44.45360000     -31.89490000     -69.79710000
H      -41.88380000     -31.79580000     -71.94350000
C      -43.85190000     -30.78190000     -69.19930000
C      -45.55640000     -32.36440000     -69.08530000
C      -45.89240000     -31.52260000     -68.04720000
S      -42.34260000     -30.33020000     -69.92440000
S      -44.70330000     -30.28360000     -67.79650000
H      -46.64240000     -31.70430000     -67.20840000
