40
Properties=species:S:1:pos:R:3 #=T CELL(abcABC):=T 1.889726e+02=T 90.00000=T Traj:=T positionsangstrom=T Step:=T 0=T Bead:=T pbc="F F F"
C      -47.57540000     -34.12230000     -74.85760000
C      -47.76580000     -34.73840000     -73.59110000
C      -46.87850000     -35.68920000     -73.21110000
C      -45.77380000     -35.90460000     -73.95560000
C      -45.56170000     -35.24520000     -75.15840000
C      -46.42160000     -34.26690000     -75.64010000
H      -48.40990000     -33.43780000     -75.15710000
H      -46.90260000     -36.14300000     -72.20780000
H      -44.61190000     -35.41850000     -75.67600000
H      -46.25280000     -33.73850000     -76.58360000
C      -44.75260000     -36.84960000     -73.39530000
H      -44.40450000     -37.61720000     -74.07010000
H      -45.08050000     -37.29380000     -72.41640000
C      -49.00960000     -34.48460000     -72.73650000
H      -49.61180000     -33.63360000     -73.16080000
H      -49.67800000     -35.35460000     -72.77490000
S      -43.13080000     -35.86750000     -72.90240000
S      -48.67800000     -34.35040000     -70.91630000
C      -43.54740000     -34.77700000     -71.51610000
H      -44.16480000     -35.29930000     -70.75060000
H      -42.64250000     -34.60730000     -70.97630000
C      -47.29190000     -33.23380000     -70.60370000
H      -47.63960000     -32.18750000     -70.57160000
H      -46.64340000     -33.20120000     -71.49150000
C      -46.46430000     -33.52520000     -69.36000000
H      -47.15190000     -33.65350000     -68.47370000
H      -45.85090000     -34.46690000     -69.34480000
C      -43.94830000     -33.35420000     -71.98370000
H      -44.99080000     -33.39540000     -72.38540000
H      -43.21620000     -33.10420000     -72.72410000
C      -43.73590000     -32.25050000     -70.84990000
C      -42.53460000     -31.56920000     -70.97580000
C      -44.46600000     -31.87940000     -69.63950000
H      -41.74890000     -31.63350000     -71.71530000
C      -43.85890000     -30.82800000     -69.01060000
C      -45.58980000     -32.38430000     -68.92140000
C      -45.79560000     -31.70740000     -67.75110000
S      -42.30740000     -30.30500000     -69.73120000
S      -44.75550000     -30.30250000     -67.53690000
H      -46.65340000     -31.84460000     -67.13550000
