40
Properties=species:S:1:pos:R:3 #=T CELL(abcABC):=T 1.889726e+02=T 90.00000=T Traj:=T positionsangstrom=T Step:=T 0=T Bead:=T pbc="F F F"
C      -44.09110000     -31.50960000     -67.90270000
C      -44.84350000     -32.71950000     -67.79990000
C      -44.19870000     -33.88110000     -68.31920000
C      -42.82210000     -33.83400000     -68.70330000
C      -42.13310000     -32.62260000     -68.80950000
C      -42.76980000     -31.50080000     -68.29680000
H      -44.53890000     -30.47860000     -67.66340000
H      -44.71590000     -34.88550000     -68.22300000
H      -41.06920000     -32.78420000     -69.09170000
H      -42.26660000     -30.48530000     -68.43050000
C      -42.11690000     -35.11190000     -69.05290000
H      -42.09260000     -35.68040000     -68.16480000
H      -41.11690000     -34.93360000     -69.48970000
C      -46.29380000     -32.77750000     -67.52020000
H      -46.67200000     -33.82700000     -67.67440000
H      -46.58610000     -32.44430000     -66.51740000
S      -43.04090000     -36.30300000     -70.13590000
S      -47.46300000     -31.82380000     -68.63900000
C      -43.52630000     -35.28000000     -71.60830000
H      -42.83770000     -34.45590000     -71.65690000
H      -43.40660000     -36.04010000     -72.35620000
C      -47.42210000     -32.71460000     -70.26470000
H      -48.48240000     -32.65270000     -70.60100000
H      -47.27490000     -33.73170000     -70.08920000
C      -46.51450000     -31.90370000     -71.23480000
H      -46.56880000     -30.77670000     -70.88740000
H      -45.51280000     -32.17940000     -70.97180000
C      -45.00120000     -34.86880000     -71.68390000
H      -45.29680000     -34.12280000     -70.93180000
H      -45.55710000     -35.72040000     -71.28990000
C      -45.38620000     -34.38130000     -73.07310000
C      -45.04690000     -35.09720000     -74.24710000
C      -46.19120000     -33.24550000     -73.42020000
H      -44.56170000     -36.05280000     -74.32800000
C      -46.54100000     -33.18980000     -74.80710000
C      -46.80340000     -32.14560000     -72.69710000
C      -47.58410000     -31.30320000     -73.56780000
S      -45.81910000     -34.50590000     -75.73580000
S      -47.52230000     -31.91340000     -75.25260000
H      -48.11590000     -30.35360000     -73.31210000
