40
Properties=species:S:1:pos:R:3 #=T CELL(abcABC):=T 1.889726e+02=T 90.00000=T Traj:=T positionsangstrom=T Step:=T 0=T Bead:=T pbc="F F F"
C      -47.76790000     -34.50230000     -74.58470000
C      -47.95150000     -34.88090000     -73.19560000
C      -47.00420000     -35.68270000     -72.58050000
C      -45.91940000     -36.18720000     -73.32030000
C      -45.74690000     -35.80610000     -74.67260000
C      -46.64390000     -34.89160000     -75.29690000
H      -48.56380000     -33.88110000     -75.05110000
H      -47.12060000     -36.04010000     -71.45680000
H      -44.88470000     -36.10150000     -75.23620000
H      -46.43750000     -34.54570000     -76.38090000
C      -44.89690000     -37.05510000     -72.63000000
H      -44.84590000     -37.92720000     -73.31750000
H      -45.16900000     -37.24910000     -71.56430000
C      -49.17530000     -34.36880000     -72.44350000
H      -49.68540000     -33.51570000     -72.92900000
H      -49.97580000     -35.16350000     -72.40000000
S      -43.28110000     -36.17420000     -72.72460000
S      -48.79600000     -33.84530000     -70.67600000
C      -43.34760000     -34.92330000     -71.36890000
H      -43.90960000     -35.38010000     -70.54980000
H      -42.31630000     -34.93340000     -70.87040000
C      -47.44340000     -32.63150000     -70.64250000
H      -47.83490000     -31.76300000     -70.16360000
H      -47.02090000     -32.49680000     -71.65630000
C      -46.43770000     -33.23980000     -69.65590000
H      -47.02300000     -33.54270000     -68.74670000
H      -46.05580000     -34.16560000     -70.05100000
C      -43.87050000     -33.61000000     -71.88050000
H      -44.96200000     -33.79700000     -72.01670000
H      -43.54310000     -33.58050000     -72.90590000
C      -43.57150000     -32.31910000     -71.18460000
C      -42.54260000     -31.46020000     -71.56410000
C      -44.28300000     -31.85770000     -70.01350000
H      -42.09900000     -31.48170000     -72.51700000
C      -43.64380000     -30.78670000     -69.43910000
C      -45.42040000     -32.27540000     -69.13900000
C      -45.58390000     -31.46900000     -67.99970000
S      -42.37290000     -30.05310000     -70.41600000
S      -44.24900000     -30.29180000     -67.92960000
H      -46.37820000     -31.57160000     -67.24020000
