40
Properties=species:S:1:pos:R:3 #=T CELL(abcABC):=T 1.889726e+02=T 90.00000=T Traj:=T positionsangstrom=T Step:=T 0=T Bead:=T pbc="F F F"
C      -42.35310000     -33.96020000     -69.53740000
C      -43.03160000     -35.17630000     -69.39440000
C      -44.26080000     -35.16150000     -68.66540000
C      -44.76740000     -33.95830000     -68.10320000
C      -43.97880000     -32.78100000     -68.17870000
C      -42.77460000     -32.78180000     -68.78460000
H      -41.35540000     -33.97920000     -69.97890000
H      -44.95020000     -35.98060000     -68.51570000
H      -44.29680000     -31.81200000     -67.72180000
H      -42.26880000     -31.81690000     -68.85180000
C      -45.98230000     -33.96600000     -67.23490000
H      -45.72900000     -33.32800000     -66.32030000
H      -46.22590000     -34.92650000     -66.90640000
C      -42.47660000     -36.37830000     -70.02190000
H      -41.35030000     -36.31110000     -70.11760000
H      -42.59630000     -37.32470000     -69.40360000
S      -47.45380000     -33.51530000     -68.23840000
S      -43.22650000     -36.76280000     -71.65150000
C      -46.85760000     -32.81690000     -69.78440000
H      -46.80530000     -31.69120000     -69.72500000
H      -45.76430000     -33.02780000     -69.98210000
C      -43.34660000     -35.19470000     -72.56470000
H      -43.25320000     -35.39660000     -73.68460000
H      -42.48900000     -34.56000000     -72.23940000
C      -44.75980000     -34.41350000     -72.36220000
H      -45.49040000     -35.23590000     -72.42500000
H      -44.79650000     -34.17220000     -71.31830000
C      -47.75050000     -33.28200000     -70.94790000
H      -48.83050000     -33.18080000     -70.72690000
H      -47.50450000     -34.31230000     -71.19170000
C      -47.44740000     -32.35930000     -72.16500000
C      -48.29620000     -31.21910000     -72.40670000
C      -46.35440000     -32.45280000     -73.06570000
H      -49.23420000     -30.97940000     -71.92290000
C      -46.43390000     -31.53070000     -74.09330000
C      -45.07820000     -33.23180000     -73.20890000
C      -44.36890000     -32.88600000     -74.35680000
S      -47.71490000     -30.40330000     -73.82340000
S      -45.07520000     -31.51400000     -75.22400000
H      -43.35510000     -33.24870000     -74.67440000
