40
Properties=species:S:1:pos:R:3 #=T CELL(abcABC):=T 1.889726e+02=T 90.00000=T Traj:=T positionsangstrom=T Step:=T 0=T Bead:=T pbc="F F F"
C      -42.12390000     -34.16580000     -69.15030000
C      -42.94030000     -35.20030000     -69.59210000
C      -44.30770000     -35.28100000     -69.05070000
C      -44.81480000     -34.32480000     -68.21420000
C      -43.94920000     -33.21130000     -67.85380000
C      -42.61670000     -33.23460000     -68.24700000
H      -41.19270000     -34.06220000     -69.53180000
H      -44.77320000     -36.21060000     -69.36420000
H      -44.39520000     -32.40730000     -67.19950000
H      -41.80050000     -32.65130000     -67.85340000
C      -46.18550000     -34.55480000     -67.63340000
H      -46.25290000     -34.67590000     -66.47980000
H      -46.61550000     -35.50170000     -68.07720000
C      -42.39310000     -36.30350000     -70.44820000
H      -41.38240000     -36.10260000     -70.67690000
H      -42.38150000     -37.21130000     -69.79880000
S      -47.44490000     -33.17670000     -67.82670000
S      -43.35680000     -36.62370000     -71.95150000
C      -47.08430000     -32.43820000     -69.53240000
H      -47.57270000     -31.46170000     -69.55200000
H      -46.01720000     -32.24090000     -69.55980000
C      -43.44570000     -34.90690000     -72.72850000
H      -43.84770000     -35.11430000     -73.69530000
H      -42.48790000     -34.52370000     -72.62170000
C      -44.41400000     -33.93250000     -72.02870000
H      -45.28840000     -34.42620000     -71.55710000
H      -43.95340000     -33.41420000     -71.22210000
C      -47.52510000     -33.21520000     -70.80340000
H      -48.61950000     -33.50850000     -70.80010000
H      -47.11710000     -34.17270000     -70.94860000
C      -47.30360000     -32.46310000     -72.12470000
C      -48.27620000     -31.61150000     -72.55730000
C      -46.19320000     -32.31870000     -73.00010000
H      -49.27170000     -31.48420000     -72.13590000
C      -46.41300000     -31.41910000     -74.05070000
C      -44.87890000     -32.94200000     -73.07540000
C      -44.15060000     -32.44290000     -74.13500000
S      -48.02690000     -30.81230000     -74.16730000
S      -45.13560000     -31.40800000     -75.24470000
H      -43.14090000     -32.71440000     -74.33440000
