40
Properties=species:S:1:pos:R:3 #=T CELL(abcABC):=T 1.889726e+02=T 90.00000=T Traj:=T positionsangstrom=T Step:=T 0=T Bead:=T pbc="F F F"
C      -42.39550000     -34.05700000     -69.59020000
C      -42.98280000     -35.28760000     -69.32480000
C      -44.14490000     -35.26940000     -68.53230000
C      -44.68170000     -34.09100000     -67.95520000
C      -43.97610000     -32.90190000     -68.13080000
C      -42.84880000     -32.87900000     -68.96500000
H      -41.58590000     -34.12480000     -70.34910000
H      -44.61630000     -36.23080000     -68.31580000
H      -44.30480000     -31.96720000     -67.66510000
H      -42.28330000     -31.97860000     -68.97680000
C      -45.95840000     -34.15190000     -67.19400000
H      -45.73870000     -33.59990000     -66.23790000
H      -46.37830000     -35.14000000     -66.89990000
C      -42.55270000     -36.53720000     -70.04700000
H      -41.47230000     -36.62700000     -70.19680000
H      -42.88380000     -37.39130000     -69.55300000
S      -47.36580000     -33.35530000     -68.14820000
S      -43.23980000     -36.60590000     -71.83600000
C      -46.65970000     -32.91590000     -69.83400000
H      -46.53830000     -31.87490000     -69.86740000
H      -45.76890000     -33.44330000     -70.06630000
C      -43.40040000     -34.91730000     -72.61840000
H      -43.24990000     -35.22570000     -73.60570000
H      -42.50990000     -34.38440000     -72.42010000
C      -44.72840000     -34.30690000     -72.23830000
H      -45.55040000     -35.01240000     -72.22290000
H      -44.62300000     -33.86000000     -71.22800000
C      -47.70430000     -33.29440000     -70.92810000
H      -48.68150000     -33.22710000     -70.50160000
H      -47.47950000     -34.37350000     -71.26570000
C      -47.50160000     -32.39360000     -72.13580000
C      -48.42230000     -31.41200000     -72.52760000
C      -46.31090000     -32.38700000     -72.98300000
H      -49.45680000     -31.25530000     -72.16790000
C      -46.46920000     -31.56220000     -74.07510000
C      -45.07050000     -33.17750000     -73.14120000
C      -44.41550000     -32.77300000     -74.26540000
S      -47.82710000     -30.48030000     -73.93470000
S      -45.06260000     -31.41560000     -75.14860000
H      -43.50830000     -33.22700000     -74.67260000
