40
Properties=species:S:1:pos:R:3 #=T CELL(abcABC):=T 1.889726e+02=T 90.00000=T Traj:=T positionsangstrom=T Step:=T 0=T Bead:=T pbc="F F F"
C      -42.22440000     -34.14320000     -69.34490000
C      -43.06860000     -35.25170000     -69.53150000
C      -44.30210000     -35.26330000     -68.86880000
C      -44.73770000     -34.20230000     -68.04470000
C      -43.94210000     -33.08690000     -67.96110000
C      -42.64450000     -33.10310000     -68.59310000
H      -41.21350000     -34.11730000     -69.84580000
H      -44.94240000     -36.09980000     -69.07080000
H      -44.21000000     -32.16190000     -67.50540000
H      -41.98120000     -32.27730000     -68.52860000
C      -46.02910000     -34.33620000     -67.27120000
H      -45.99030000     -34.11780000     -66.27970000
H      -46.32840000     -35.39080000     -67.36410000
C      -42.47930000     -36.35670000     -70.35490000
H      -41.39520000     -36.14780000     -70.65610000
H      -42.47810000     -37.28390000     -69.76480000
S      -47.43330000     -33.34590000     -68.03640000
S      -43.30000000     -36.59900000     -72.02400000
C      -46.86870000     -32.35470000     -69.49990000
H      -47.33990000     -31.33060000     -69.51760000
H      -45.76050000     -32.23110000     -69.45310000
C      -43.37180000     -34.98600000     -72.74080000
H      -43.49330000     -35.02460000     -73.85290000
H      -42.38100000     -34.39100000     -72.75400000
C      -44.50660000     -34.12790000     -72.14030000
H      -45.41240000     -34.74610000     -72.05110000
H      -44.22900000     -33.76530000     -71.08020000
C      -47.43920000     -33.09180000     -70.73420000
H      -48.43040000     -33.26710000     -70.44100000
H      -46.82820000     -34.04920000     -70.76370000
C      -47.36420000     -32.37120000     -72.07660000
C      -48.37570000     -31.59930000     -72.53620000
C      -46.24260000     -32.28610000     -72.98350000
H      -49.41390000     -31.45290000     -72.19180000
C      -46.44090000     -31.39690000     -74.03230000
C      -44.93680000     -33.02260000     -73.05030000
C      -44.20010000     -32.52470000     -74.11820000
S      -48.10180000     -30.87740000     -74.14660000
S      -45.10000000     -31.40300000     -75.10410000
H      -43.31790000     -33.02530000     -74.53070000
