40
Properties=species:S:1:pos:R:3 #=T CELL(abcABC):=T 1.889726e+02=T 90.00000=T Traj:=T positionsangstrom=T Step:=T 0=T Bead:=T pbc="F F F"
C      -48.32800000     -34.23820000     -73.22660000
C      -48.29870000     -34.90450000     -71.98950000
C      -47.25440000     -35.83530000     -71.72030000
C      -46.37450000     -36.22530000     -72.73800000
C      -46.36320000     -35.45360000     -73.87930000
C      -47.33300000     -34.51460000     -74.19760000
H      -49.12150000     -33.40260000     -73.23890000
H      -47.28640000     -36.19270000     -70.77900000
H      -45.52820000     -35.56520000     -74.55430000
H      -47.19360000     -34.10640000     -75.21410000
C      -45.31640000     -37.28860000     -72.48840000
H      -45.33940000     -38.11110000     -73.23320000
H      -45.39820000     -37.84190000     -71.52730000
C      -49.32790000     -34.57980000     -70.98900000
H      -49.98060000     -33.72200000     -71.30720000
H      -50.00900000     -35.46980000     -70.72290000
S      -43.55480000     -36.60990000     -72.52780000
S      -48.57520000     -34.20190000     -69.30460000
C      -43.76730000     -35.10100000     -71.57460000
H      -44.55640000     -35.36100000     -70.87430000
H      -42.85390000     -34.85470000     -71.03760000
C      -47.61220000     -32.54870000     -69.39270000
H      -47.71640000     -32.08330000     -68.37870000
H      -48.18620000     -31.94230000     -70.11980000
C      -46.10980000     -32.89990000     -69.86280000
H      -45.71420000     -33.75280000     -69.24410000
H      -46.20120000     -33.32540000     -70.86940000
C      -43.98080000     -33.88440000     -72.36620000
H      -45.05410000     -33.84060000     -72.61930000
H      -43.42920000     -33.88290000     -73.28510000
C      -43.43080000     -32.55810000     -71.83520000
C      -42.33490000     -32.03460000     -72.40170000
C      -43.90310000     -31.72150000     -70.74650000
H      -41.73820000     -32.59630000     -73.19650000
C      -43.22980000     -30.51210000     -70.62340000
C      -45.06730000     -31.79830000     -69.82860000
C      -45.21550000     -30.60520000     -69.12760000
S      -41.89200000     -30.47080000     -71.78540000
S      -43.82070000     -29.56980000     -69.31460000
H      -45.96180000     -30.38020000     -68.38160000
