40
Properties=species:S:1:pos:R:3 #=T CELL(abcABC):=T 1.889726e+02=T 90.00000=T Traj:=T positionsangstrom=T Step:=T 0=T Bead:=T pbc="F F F"
C      -48.31600000     -34.47420000     -72.81400000
C      -48.23590000     -35.09230000     -71.58690000
C      -47.22910000     -36.06980000     -71.26450000
C      -46.25130000     -36.33200000     -72.18340000
C      -46.34560000     -35.72070000     -73.47650000
C      -47.30510000     -34.78770000     -73.77380000
H      -49.07000000     -33.71100000     -73.06860000
H      -47.11610000     -36.47980000     -70.26530000
H      -45.58000000     -36.02480000     -74.16200000
H      -47.28280000     -34.25680000     -74.74000000
C      -45.16990000     -37.33520000     -71.88330000
H      -45.26350000     -38.27260000     -72.44410000
H      -45.21790000     -37.66730000     -70.84990000
C      -49.20770000     -34.69480000     -70.39980000
H      -49.82880000     -33.83980000     -70.60260000
H      -49.91930000     -35.48360000     -70.14490000
S      -43.50460000     -36.62170000     -72.33070000
S      -48.31060000     -34.33120000     -68.81340000
C      -43.32760000     -35.02270000     -71.50800000
H      -43.90720000     -35.09520000     -70.57940000
H      -42.25420000     -34.86390000     -71.16980000
C      -47.25530000     -32.85380000     -69.25470000
H      -46.56240000     -32.87500000     -68.40840000
H      -47.74160000     -31.88030000     -69.29500000
C      -46.27850000     -32.86960000     -70.44930000
H      -45.82830000     -33.87260000     -70.42500000
H      -46.85040000     -32.84770000     -71.35660000
C      -43.75120000     -33.87720000     -72.39040000
H      -44.81040000     -33.79090000     -72.50790000
H      -43.42370000     -34.06310000     -73.43120000
C      -43.25870000     -32.51360000     -71.96450000
C      -42.11260000     -31.95040000     -72.45140000
C      -44.08840000     -31.61440000     -71.21530000
H      -41.31640000     -32.48010000     -72.89340000
C      -43.50840000     -30.38300000     -71.16770000
C      -45.39220000     -31.66320000     -70.53480000
C      -45.62990000     -30.49410000     -69.89650000
S      -41.96130000     -30.24780000     -71.91020000
S      -44.37070000     -29.21690000     -70.25930000
H      -46.56830000     -30.30430000     -69.32600000
