40
Properties=species:S:1:pos:R:3 #=T CELL(abcABC):=T 1.889726e+02=T 90.00000=T Traj:=T positionsangstrom=T Step:=T 0=T Bead:=T pbc="F F F"
C      -43.78070000     -31.87270000     -68.02720000
C      -44.82150000     -32.80300000     -68.17890000
C      -44.57460000     -34.17140000     -68.37150000
C      -43.25590000     -34.65050000     -68.62120000
C      -42.20280000     -33.74790000     -68.44670000
C      -42.48110000     -32.36900000     -68.26180000
H      -44.03910000     -30.83410000     -68.23240000
H      -45.44480000     -34.85070000     -68.37490000
H      -41.19440000     -34.18190000     -68.61340000
H      -41.63210000     -31.61270000     -68.17040000
C      -43.00990000     -36.11030000     -69.01070000
H      -43.05490000     -36.65660000     -68.03740000
H      -41.97300000     -36.29280000     -69.32150000
C      -46.22310000     -32.37450000     -67.82850000
H      -46.91740000     -33.12970000     -67.96140000
H      -46.25040000     -32.05640000     -66.79270000
S      -44.26820000     -36.87360000     -70.14350000
S      -46.76530000     -30.75000000     -68.65600000
C      -44.02190000     -36.08610000     -71.71220000
H      -42.95610000     -36.02560000     -72.01320000
H      -44.45020000     -36.75060000     -72.49530000
C      -47.16180000     -31.26880000     -70.34820000
H      -47.72540000     -30.42770000     -70.73720000
H      -47.86390000     -32.14110000     -70.35580000
C      -45.95400000     -31.52740000     -71.23390000
H      -45.23620000     -30.69360000     -71.20000000
H      -45.45920000     -32.34890000     -70.77030000
C      -44.63270000     -34.62300000     -71.82300000
H      -43.79730000     -33.99280000     -71.50450000
H      -45.38950000     -34.46420000     -71.08550000
C      -45.18970000     -34.23000000     -73.16280000
C      -45.12330000     -35.04960000     -74.25840000
C      -45.89220000     -33.08850000     -73.43850000
H      -44.54550000     -35.98310000     -74.40480000
C      -46.38480000     -33.07740000     -74.72410000
C      -46.37280000     -31.97750000     -72.67270000
C      -47.14820000     -31.10550000     -73.36890000
S      -45.91280000     -34.41770000     -75.68770000
S      -47.33050000     -31.70540000     -75.05320000
H      -47.58450000     -30.20790000     -72.97030000
