40
Properties=species:S:1:pos:R:3 #=T CELL(abcABC):=T 1.889726e+02=T 90.00000=T Traj:=T positionsangstrom=T Step:=T 0=T Bead:=T pbc="F F F"
C      -43.06340000     -36.98380000     -71.22140000
C      -44.29170000     -36.37470000     -70.79510000
C      -44.14240000     -35.27300000     -69.89160000
C      -42.88740000     -34.83900000     -69.40180000
C      -41.73830000     -35.51980000     -69.92330000
C      -41.85960000     -36.61260000     -70.74140000
H      -43.15070000     -37.79860000     -71.94650000
H      -45.06680000     -34.80090000     -69.58300000
H      -40.83670000     -35.00980000     -69.49990000
H      -40.93410000     -37.04950000     -71.24220000
C      -42.68920000     -33.62590000     -68.57500000
H      -42.12080000     -33.84710000     -67.69250000
H      -43.72700000     -33.17630000     -68.25100000
C      -45.65050000     -36.95190000     -71.14920000
H      -45.74750000     -37.93370000     -70.72730000
H      -46.36570000     -36.31130000     -70.70290000
S      -41.78710000     -32.27360000     -69.55070000
S      -45.99210000     -37.02820000     -72.99600000
C      -43.19640000     -31.32070000     -70.07860000
H      -43.85350000     -31.12670000     -69.20510000
H      -42.83860000     -30.30290000     -70.30560000
C      -46.97270000     -35.51380000     -73.19540000
H      -47.80650000     -35.55080000     -72.49920000
H      -47.44900000     -35.53630000     -74.24950000
C      -46.26660000     -34.17550000     -72.90460000
H      -45.56750000     -34.35090000     -72.04860000
H      -45.60720000     -33.96660000     -73.77960000
C      -44.10800000     -31.94360000     -71.26530000
H      -44.35970000     -33.04880000     -71.20260000
H      -43.64150000     -31.75610000     -72.25490000
C      -45.49030000     -31.24140000     -71.33770000
C      -45.74430000     -29.96180000     -70.85830000
C      -46.68040000     -31.79410000     -71.92240000
H      -44.99590000     -29.21790000     -70.66490000
C      -47.70730000     -30.87820000     -71.86000000
C      -47.20580000     -33.01790000     -72.59220000
C      -48.47320000     -32.89410000     -73.11530000
S      -47.38020000     -29.39460000     -71.06700000
S      -49.21300000     -31.38900000     -72.66360000
H      -49.16560000     -33.62000000     -73.54220000
