40
Properties=species:S:1:pos:R:3 #=T CELL(abcABC):=T 1.889726e+02=T 90.00000=T Traj:=T positionsangstrom=T Step:=T 0=T Bead:=T pbc="F F F"
C      -48.33220000     -35.03500000     -72.69570000
C      -48.02570000     -35.33560000     -71.36840000
C      -46.84000000     -36.09080000     -71.05710000
C      -46.01110000     -36.53030000     -72.05440000
C      -46.48410000     -36.37480000     -73.38160000
C      -47.56580000     -35.61620000     -73.71390000
H      -49.24590000     -34.44790000     -72.98190000
H      -46.58220000     -36.28640000     -69.99020000
H      -45.83350000     -36.96680000     -74.04770000
H      -47.98190000     -35.63480000     -74.74910000
C      -44.77260000     -37.36230000     -71.86000000
H      -44.75920000     -38.17410000     -72.61300000
H      -44.77170000     -37.83170000     -70.88760000
C      -48.96300000     -34.97510000     -70.28750000
H      -49.82540000     -34.43960000     -70.71180000
H      -49.50260000     -35.79390000     -69.75350000
S      -43.12150000     -36.50460000     -72.18350000
S      -48.28320000     -34.07700000     -68.78810000
C      -43.36720000     -34.90100000     -71.30200000
H      -44.13740000     -35.02060000     -70.60530000
H      -42.40670000     -34.57620000     -70.85910000
C      -47.41000000     -32.49820000     -69.30030000
H      -46.92510000     -32.11350000     -68.37730000
H      -48.10050000     -31.72380000     -69.66920000
C      -46.32770000     -32.67500000     -70.36570000
H      -45.60450000     -33.48040000     -70.03130000
H      -46.68620000     -33.05630000     -71.30210000
C      -43.95150000     -33.85810000     -72.31300000
H      -45.00440000     -33.99600000     -72.28350000
H      -43.72500000     -34.07070000     -73.39430000
C      -43.53740000     -32.43480000     -72.06530000
C      -42.32570000     -31.98800000     -72.54170000
C      -44.28020000     -31.47370000     -71.30950000
H      -41.53610000     -32.51170000     -73.11760000
C      -43.63360000     -30.24640000     -71.29270000
C      -45.47320000     -31.45520000     -70.55070000
C      -45.64330000     -30.24580000     -69.95040000
S      -42.20380000     -30.23330000     -72.30440000
S      -44.41720000     -29.03060000     -70.37100000
H      -46.43040000     -29.83200000     -69.27810000
