40
Properties=species:S:1:pos:R:3 #=T CELL(abcABC):=T 1.889726e+02=T 90.00000=T Traj:=T positionsangstrom=T Step:=T 0=T Bead:=T pbc="F F F"
C      -48.33650000     -35.40650000     -72.62560000
C      -47.92220000     -35.39140000     -71.24440000
C      -46.66120000     -35.99810000     -70.95830000
C      -45.85480000     -36.60460000     -71.90830000
C      -46.41970000     -36.69200000     -73.25250000
C      -47.59240000     -36.07430000     -73.60570000
H      -49.20040000     -34.83920000     -72.81150000
H      -46.26600000     -35.91540000     -69.97720000
H      -45.84090000     -37.14490000     -74.03180000
H      -47.81500000     -35.97260000     -74.66310000
C      -44.47080000     -37.23210000     -71.64610000
H      -44.48920000     -38.19630000     -72.21460000
H      -44.48320000     -37.62100000     -70.60940000
C      -48.97020000     -34.97810000     -70.23950000
H      -49.75340000     -34.28440000     -70.60720000
H      -49.57950000     -35.82040000     -69.98880000
S      -42.89980000     -36.39710000     -72.06090000
S      -48.24200000     -34.20030000     -68.77410000
C      -43.09460000     -34.63810000     -71.52140000
H      -43.42910000     -34.77630000     -70.46260000
H      -42.11010000     -34.20220000     -71.47750000
C      -47.60370000     -32.64010000     -69.49430000
H      -47.42410000     -31.93720000     -68.65450000
H      -48.44360000     -32.22620000     -70.12450000
C      -46.30440000     -32.73660000     -70.33470000
H      -45.67400000     -33.35710000     -69.77880000
H      -46.45200000     -33.30990000     -71.25210000
C      -44.00280000     -33.78320000     -72.41430000
H      -45.06570000     -33.80180000     -72.11400000
H      -43.82160000     -34.11820000     -73.40780000
C      -43.63680000     -32.33520000     -72.23020000
C      -42.46180000     -31.82530000     -72.75980000
C      -44.39590000     -31.38590000     -71.40130000
H      -41.88380000     -32.23140000     -73.59120000
C      -43.81420000     -30.15580000     -71.38530000
C      -45.58460000     -31.45170000     -70.56020000
C      -45.79100000     -30.25200000     -69.89780000
S      -42.29850000     -30.10780000     -72.41550000
S      -44.61740000     -28.96720000     -70.35910000
H      -46.62940000     -29.93000000     -69.24300000
