40
Properties=species:S:1:pos:R:3 #=T CELL(abcABC):=T 1.889726e+02=T 90.00000=T Traj:=T positionsangstrom=T Step:=T 0=T Bead:=T pbc="F F F"
C      -43.72930000     -30.19930000     -72.11890000
C      -45.08260000     -30.15310000     -71.81110000
C      -45.60800000     -30.25960000     -70.49020000
C      -44.63810000     -30.56210000     -69.48520000
C      -43.22850000     -30.52480000     -69.76190000
C      -42.81280000     -30.33290000     -71.08460000
H      -43.45670000     -30.14780000     -73.13360000
H      -46.65210000     -30.50170000     -70.27870000
H      -42.58360000     -30.92110000     -68.91590000
H      -41.75230000     -30.44320000     -71.39060000
C      -45.17280000     -30.89620000     -68.06950000
H      -45.60070000     -29.91320000     -67.72620000
H      -44.33860000     -31.20950000     -67.41650000
C      -46.05750000     -29.89050000     -72.99350000
H      -46.64880000     -28.95180000     -72.82030000
H      -45.39480000     -29.73580000     -73.90860000
S      -46.63480000     -32.12600000     -67.98440000
S      -47.28340000     -31.15310000     -73.54610000
C      -45.90980000     -33.76880000     -68.58770000
H      -45.15650000     -34.12400000     -67.83590000
H      -46.69400000     -34.57170000     -68.64200000
C      -46.24870000     -32.65980000     -73.62160000
H      -45.36800000     -32.64910000     -73.01660000
H      -45.86070000     -32.76130000     -74.64820000
C      -46.99520000     -33.91060000     -73.13460000
H      -47.45000000     -33.68430000     -72.17920000
H      -47.85950000     -34.08650000     -73.82560000
C      -45.20220000     -33.58910000     -69.95440000
H      -44.24380000     -32.98500000     -69.89460000
H      -45.81740000     -33.02240000     -70.75210000
C      -44.84060000     -34.87450000     -70.58190000
C      -43.99800000     -35.60640000     -69.82810000
C      -45.26890000     -35.50010000     -71.89270000
H      -43.64990000     -35.60860000     -68.83500000
C      -44.80880000     -36.82340000     -71.92780000
C      -46.11350000     -35.13120000     -72.99120000
C      -45.98470000     -36.06270000     -74.00890000
S      -43.66660000     -37.14990000     -70.64140000
S      -45.09170000     -37.50210000     -73.51370000
H      -46.56380000     -36.08450000     -74.95140000
