40
Properties=species:S:1:pos:R:3 #=T CELL(abcABC):=T 1.889726e+02=T 90.00000=T Traj:=T positionsangstrom=T Step:=T 0=T Bead:=T pbc="F F F"
C      -43.18820000     -37.03800000     -71.40920000
C      -44.37110000     -36.47400000     -70.91520000
C      -44.19030000     -35.41300000     -70.03280000
C      -42.94030000     -34.94880000     -69.57040000
C      -41.76620000     -35.53490000     -70.15170000
C      -41.91660000     -36.61240000     -71.08160000
H      -43.19880000     -37.92180000     -72.03540000
H      -45.03260000     -34.91520000     -69.51200000
H      -40.82420000     -35.14880000     -69.82000000
H      -41.10250000     -37.27570000     -71.43400000
C      -42.80590000     -33.83080000     -68.55080000
H      -42.15290000     -34.02160000     -67.77850000
H      -43.79490000     -33.54740000     -68.20900000
C      -45.75900000     -36.94880000     -71.19950000
H      -45.82050000     -38.00450000     -70.81430000
H      -46.47890000     -36.28540000     -70.66680000
S      -42.01260000     -32.31410000     -69.28630000
S      -46.09890000     -36.98510000     -73.02100000
C      -43.44160000     -31.29310000     -69.88680000
H      -44.19740000     -31.18990000     -69.10190000
H      -43.09840000     -30.27010000     -70.07730000
C      -46.88400000     -35.28930000     -73.26100000
H      -47.73590000     -35.35430000     -72.59550000
H      -47.10990000     -35.26350000     -74.37470000
C      -46.07370000     -34.04470000     -72.97370000
H      -45.37570000     -34.15930000     -72.14190000
H      -45.47390000     -33.83340000     -73.87830000
C      -44.06890000     -31.89730000     -71.17730000
H      -44.20190000     -32.96930000     -71.05420000
H      -43.47170000     -31.83350000     -72.06280000
C      -45.35050000     -31.19980000     -71.44200000
C      -45.60110000     -29.98390000     -70.77510000
C      -46.56440000     -31.66250000     -72.05290000
H      -44.90710000     -29.31680000     -70.35670000
C      -47.61490000     -30.68650000     -72.00890000
C      -46.99390000     -32.90140000     -72.69050000
C      -48.31100000     -32.94970000     -73.06010000
S      -47.24050000     -29.34420000     -71.00030000
S      -49.15460000     -31.49990000     -72.43900000
H      -48.86860000     -33.78890000     -73.55650000
