40
Properties=species:S:1:pos:R:3 #=T CELL(abcABC):=T 1.889726e+02=T 90.00000=T Traj:=T positionsangstrom=T Step:=T 0=T Bead:=T pbc="F F F"
C      -43.34920000     -30.97830000     -73.50170000
C      -44.57350000     -30.60220000     -72.92950000
C      -44.69770000     -30.26530000     -71.59630000
C      -43.58800000     -30.49250000     -70.78090000
C      -42.32710000     -30.90760000     -71.30880000
C      -42.24110000     -31.10920000     -72.64380000
H      -43.22880000     -31.12340000     -74.60780000
H      -45.64550000     -29.94820000     -71.19890000
H      -41.40200000     -31.02200000     -70.63590000
H      -41.22600000     -31.41310000     -73.02490000
C      -43.66000000     -30.19130000     -69.35780000
H      -43.65160000     -29.15880000     -68.98300000
H      -42.93790000     -30.80100000     -68.80920000
C      -45.76110000     -30.40630000     -73.84530000
H      -46.13700000     -29.32350000     -73.96760000
H      -45.53230000     -30.92990000     -74.75900000
S      -45.33970000     -30.79350000     -68.51850000
S      -47.24510000     -31.36470000     -73.20580000
C      -45.20270000     -32.65770000     -68.57150000
H      -44.15750000     -32.93570000     -68.36340000
H      -45.66780000     -33.07110000     -67.70850000
C      -46.56470000     -33.05850000     -73.10610000
H      -45.62680000     -33.12450000     -72.55410000
H      -46.28180000     -33.40740000     -74.10030000
C      -47.59760000     -34.08420000     -72.66860000
H      -48.22450000     -33.73790000     -71.81820000
H      -48.35470000     -34.20170000     -73.42810000
C      -45.65210000     -33.21070000     -69.87960000
H      -45.05850000     -32.63970000     -70.61350000
H      -46.68810000     -32.98660000     -70.27360000
C      -45.34830000     -34.70670000     -70.06820000
C      -44.43610000     -35.46070000     -69.32280000
C      -45.97340000     -35.55580000     -71.13030000
H      -43.86310000     -35.19040000     -68.44870000
C      -45.55740000     -36.86050000     -71.03280000
C      -46.90910000     -35.38610000     -72.24820000
C      -47.10520000     -36.57440000     -72.92780000
S      -44.44020000     -37.17270000     -69.73150000
S      -46.20000000     -37.93080000     -72.29840000
H      -47.72760000     -36.67650000     -73.78830000
