40
Properties=species:S:1:pos:R:3 #=T CELL(abcABC):=T 1.889726e+02=T 90.00000=T Traj:=T positionsangstrom=T Step:=T 0=T Bead:=T pbc="F F F"
C      -43.38690000     -30.99630000     -73.41600000
C      -44.58850000     -30.56120000     -72.89760000
C      -44.73590000     -30.14370000     -71.54910000
C      -43.62840000     -30.31540000     -70.76210000
C      -42.44710000     -30.92190000     -71.20720000
C      -42.27870000     -31.17270000     -72.57570000
H      -43.19840000     -31.22730000     -74.43170000
H      -45.65920000     -29.74850000     -71.17570000
H      -41.66630000     -31.21170000     -70.44210000
H      -41.38010000     -31.51880000     -73.00950000
C      -43.84290000     -30.13190000     -69.23520000
H      -44.05670000     -29.06020000     -68.98360000
H      -42.90320000     -30.42560000     -68.76070000
C      -45.83420000     -30.37760000     -73.72770000
H      -46.06100000     -29.32180000     -73.70290000
H      -45.70140000     -30.57220000     -74.78540000
S      -45.31060000     -30.85370000     -68.54310000
S      -47.21700000     -31.32620000     -73.06640000
C      -45.02540000     -32.63020000     -68.73300000
H      -43.93380000     -32.69270000     -68.82260000
H      -45.39740000     -33.16390000     -67.81380000
C      -46.66750000     -33.07810000     -73.33260000
H      -45.63750000     -33.17220000     -72.97230000
H      -46.64770000     -33.29590000     -74.43690000
C      -47.56550000     -34.13870000     -72.57440000
H      -47.83620000     -33.73900000     -71.57470000
H      -48.51100000     -34.32670000     -73.13550000
C      -45.73670000     -33.33470000     -69.89980000
H      -45.55080000     -32.84150000     -70.86550000
H      -46.78110000     -33.12370000     -69.70960000
C      -45.47270000     -34.80620000     -70.05830000
C      -44.67510000     -35.48040000     -69.18960000
C      -45.91370000     -35.60310000     -71.20730000
H      -44.22960000     -34.97350000     -68.30540000
C      -45.48680000     -36.94950000     -71.09210000
C      -46.81710000     -35.40530000     -72.28400000
C      -46.98790000     -36.50930000     -73.09510000
S      -44.39040000     -37.17160000     -69.75150000
S      -46.05880000     -37.91450000     -72.43040000
H      -47.64180000     -36.56380000     -73.96650000
