40
Properties=species:S:1:pos:R:3 #=T CELL(abcABC):=T 1.889726e+02=T 90.00000=T Traj:=T positionsangstrom=T Step:=T 0=T Bead:=T pbc="F F F"
C      -43.55190000     -30.81140000     -73.12810000
C      -44.79640000     -30.31080000     -72.75660000
C      -45.14700000     -29.99860000     -71.41280000
C      -44.29240000     -30.39060000     -70.34730000
C      -43.10050000     -31.01610000     -70.72420000
C      -42.72440000     -31.17190000     -72.06510000
H      -43.46010000     -31.06820000     -74.16320000
H      -46.11610000     -29.54850000     -71.27480000
H      -42.35360000     -31.44820000     -69.94500000
H      -41.62810000     -31.50220000     -72.25160000
C      -44.60190000     -30.06280000     -68.94670000
H      -45.18050000     -29.09430000     -68.94770000
H      -43.61220000     -29.84800000     -68.50100000
C      -45.85380000     -30.08060000     -73.77180000
H      -46.46730000     -29.19670000     -73.51130000
H      -45.50790000     -29.77420000     -74.81670000
S      -45.65420000     -31.28890000     -68.00320000
S      -47.15880000     -31.40740000     -73.92020000
C      -44.99020000     -32.95080000     -68.43780000
H      -44.01970000     -32.84720000     -68.87480000
H      -44.76260000     -33.55130000     -67.53600000
C      -46.31500000     -32.93860000     -73.27660000
H      -45.63370000     -32.49560000     -72.53420000
H      -45.62930000     -33.45920000     -73.98070000
C      -47.28410000     -33.90910000     -72.58330000
H      -47.63890000     -33.40670000     -71.70380000
H      -48.22730000     -34.12210000     -73.19050000
C      -45.99370000     -33.59170000     -69.42950000
H      -46.01710000     -32.88080000     -70.30730000
H      -47.00220000     -33.74870000     -69.03150000
C      -45.42020000     -35.02390000     -69.89690000
C      -44.55430000     -35.89260000     -69.19980000
C      -45.77580000     -35.61950000     -71.15850000
H      -44.23430000     -35.83520000     -68.20850000
C      -45.07290000     -36.85110000     -71.39280000
C      -46.54720000     -35.20630000     -72.32400000
C      -46.43410000     -36.09750000     -73.36340000
S      -44.10640000     -37.32330000     -70.04080000
S      -45.49390000     -37.51560000     -72.92990000
H      -46.96480000     -36.12180000     -74.27060000
