40
Properties=species:S:1:pos:R:3 #=T CELL(abcABC):=T 1.889726e+02=T 90.00000=T Traj:=T positionsangstrom=T Step:=T 0=T Bead:=T pbc="F F F"
C      -43.49740000     -30.95660000     -73.22310000
C      -44.79380000     -30.46050000     -72.82310000
C      -45.05730000     -30.14280000     -71.47950000
C      -44.06290000     -30.34370000     -70.47410000
C      -42.84880000     -30.93350000     -70.88510000
C      -42.58200000     -31.22860000     -72.21640000
H      -43.34560000     -31.08530000     -74.30580000
H      -46.07070000     -29.76540000     -71.28800000
H      -42.13990000     -31.20490000     -70.09060000
H      -41.54980000     -31.68300000     -72.41920000
C      -44.26620000     -30.08740000     -68.99640000
H      -44.61150000     -29.09420000     -68.87760000
H      -43.34180000     -30.15490000     -68.41960000
C      -45.82510000     -30.21670000     -73.84090000
H      -46.29960000     -29.21840000     -73.75020000
H      -45.39400000     -30.20150000     -74.80170000
S      -45.50950000     -31.13570000     -68.15160000
S      -47.24590000     -31.36380000     -73.77460000
C      -44.92200000     -32.85280000     -68.47410000
H      -43.93600000     -32.92540000     -68.90860000
H      -45.06420000     -33.35300000     -67.51070000
C      -46.39080000     -32.89470000     -73.19040000
H      -45.60760000     -32.59670000     -72.52920000
H      -45.97540000     -33.33200000     -74.08340000
C      -47.29710000     -33.91240000     -72.49400000
H      -47.85060000     -33.53800000     -71.55970000
H      -48.07960000     -34.10230000     -73.21470000
C      -45.86100000     -33.59650000     -69.50450000
H      -46.11940000     -32.97740000     -70.37140000
H      -46.79800000     -33.60180000     -68.91400000
C      -45.49040000     -34.99170000     -69.88810000
C      -44.63930000     -35.72730000     -69.14370000
C      -45.85730000     -35.59880000     -71.13740000
H      -44.21880000     -35.30580000     -68.27650000
C      -45.24220000     -36.83230000     -71.31980000
C      -46.60900000     -35.21810000     -72.29270000
C      -46.67460000     -36.20130000     -73.20550000
S      -44.28210000     -37.34980000     -69.92740000
S      -45.61120000     -37.57660000     -72.88530000
H      -46.98310000     -36.04390000     -74.21040000
