40
Properties=species:S:1:pos:R:3 #=T CELL(abcABC):=T 1.889726e+02=T 90.00000=T Traj:=T positionsangstrom=T Step:=T 0=T Bead:=T pbc="F F F"
C      -46.80010000     -37.38460000     -71.85180000
C      -46.53450000     -36.73080000     -70.61800000
C      -45.26670000     -36.35190000     -70.23150000
C      -44.15060000     -36.52580000     -71.11250000
C      -44.43520000     -37.18130000     -72.30860000
C      -45.75070000     -37.56510000     -72.73050000
H      -47.83820000     -37.57900000     -72.12940000
H      -45.20690000     -35.86860000     -69.27330000
H      -43.63300000     -37.34450000     -72.99550000
H      -45.63060000     -38.09940000     -73.65140000
C      -42.83510000     -36.02430000     -70.82240000
H      -42.11980000     -36.83760000     -70.78150000
H      -42.88580000     -35.37850000     -69.90780000
C      -47.66220000     -36.50080000     -69.69810000
H      -48.48710000     -36.59160000     -70.42050000
H      -47.80130000     -37.35020000     -69.00830000
S      -42.04150000     -34.90220000     -72.13800000
S      -47.83980000     -34.86610000     -68.78720000
C      -43.04620000     -33.30020000     -71.91720000
H      -43.37560000     -33.21880000     -70.86580000
H      -42.28700000     -32.54030000     -72.14440000
C      -47.60420000     -33.59700000     -70.09640000
H      -48.19750000     -32.70350000     -69.82340000
H      -47.92720000     -33.86690000     -71.05570000
C      -46.08050000     -33.02250000     -70.07090000
H      -45.58330000     -33.23690000     -69.12640000
H      -45.55180000     -33.56070000     -70.77970000
C      -44.27870000     -33.27130000     -72.84550000
H      -45.01820000     -33.86520000     -72.33800000
H      -44.01010000     -33.60790000     -73.89230000
C      -44.65900000     -31.85390000     -72.78000000
C      -44.36930000     -31.00400000     -73.77210000
C      -45.35970000     -31.21720000     -71.67510000
H      -43.97110000     -31.22480000     -74.77570000
C      -45.46750000     -29.78480000     -71.88460000
C      -45.98260000     -31.60520000     -70.50400000
C      -46.63110000     -30.60640000     -69.80460000
S      -44.57340000     -29.26280000     -73.35390000
S      -46.21880000     -29.04050000     -70.46240000
H      -47.15810000     -30.71620000     -68.87340000
