40
Properties=species:S:1:pos:R:3 #=T CELL(abcABC):=T 1.889726e+02=T 90.00000=T Traj:=T positionsangstrom=T Step:=T 0=T Bead:=T pbc="F F F"
C      -44.05820000     -35.85560000     -74.47430000
C      -44.13760000     -34.42440000     -74.44950000
C      -45.40350000     -33.80270000     -74.53830000
C      -46.59520000     -34.51530000     -74.46080000
C      -46.48030000     -35.87510000     -74.33140000
C      -45.22970000     -36.54700000     -74.33240000
H      -43.12900000     -36.43540000     -74.46150000
H      -45.39530000     -32.64370000     -74.52320000
H      -47.40720000     -36.46810000     -74.10630000
H      -45.20330000     -37.63580000     -74.10410000
C      -47.91070000     -33.72800000     -74.55640000
H      -48.68420000     -34.46530000     -74.45690000
H      -48.07520000     -33.20140000     -75.50970000
C      -42.91440000     -33.54270000     -74.43210000
H      -42.28010000     -33.84170000     -75.32690000
H      -43.08860000     -32.47370000     -74.45670000
S      -48.16210000     -32.37550000     -73.35950000
S      -41.85600000     -33.70350000     -72.92240000
C      -48.15970000     -33.16920000     -71.67580000
H      -48.73390000     -32.44300000     -71.07470000
H      -48.74330000     -34.10180000     -71.73760000
C      -43.03190000     -33.76600000     -71.56190000
H      -42.66470000     -34.37160000     -70.68170000
H      -43.90970000     -34.14560000     -71.97990000
C      -43.30980000     -32.37100000     -70.97560000
H      -42.31510000     -31.97890000     -70.89220000
H      -43.80050000     -31.72340000     -71.76420000
C      -46.73120000     -33.58170000     -71.14760000
H      -45.95860000     -33.23810000     -71.84690000
H      -46.77140000     -34.71300000     -71.18550000
C      -46.52720000     -33.17250000     -69.68790000
C      -47.50280000     -33.36440000     -68.76350000
C      -45.29210000     -32.70590000     -69.07190000
H      -48.53010000     -33.62640000     -69.00810000
C      -45.43980000     -32.52870000     -67.70700000
C      -43.92890000     -32.36790000     -69.60830000
C      -43.18900000     -31.85420000     -68.57610000
S      -47.00640000     -32.96130000     -67.14120000
S      -44.04650000     -31.86460000     -66.95990000
H      -42.12270000     -31.67450000     -68.66730000
