40
Properties=species:S:1:pos:R:3 #=T CELL(abcABC):=T 1.889726e+02=T 90.00000=T Traj:=T positionsangstrom=T Step:=T 0=T Bead:=T pbc="F F F"
C      -43.11440000     -31.25790000     -73.55430000
C      -44.44160000     -30.76960000     -73.10480000
C      -44.64400000     -30.30360000     -71.81980000
C      -43.61460000     -30.40990000     -70.88810000
C      -42.30340000     -30.79380000     -71.26380000
C      -42.09190000     -31.27760000     -72.61990000
H      -42.98230000     -31.50320000     -74.58050000
H      -45.57570000     -29.90630000     -71.44830000
H      -41.50740000     -30.71460000     -70.51380000
H      -41.15850000     -31.56330000     -73.01800000
C      -43.89740000     -29.81630000     -69.56430000
H      -44.26810000     -28.78940000     -69.71280000
H      -42.92070000     -29.71230000     -69.05200000
C      -45.41600000     -30.57130000     -74.17860000
H      -45.66070000     -29.49990000     -74.23380000
H      -44.92010000     -30.69520000     -75.18630000
S      -45.24540000     -30.71000000     -68.59340000
S      -47.04160000     -31.63100000     -73.95900000
C      -44.99970000     -32.54690000     -68.57930000
H      -43.96520000     -32.69270000     -68.22670000
H      -45.71660000     -32.82110000     -67.81480000
C      -46.34700000     -33.14460000     -73.15020000
H      -45.55640000     -32.85800000     -72.50760000
H      -45.93880000     -33.85760000     -73.89290000
C      -47.46350000     -33.85580000     -72.42740000
H      -47.79600000     -33.35510000     -71.46500000
H      -48.33610000     -34.03340000     -73.05950000
C      -45.23670000     -33.27700000     -69.90060000
H      -44.50640000     -32.83980000     -70.51660000
H      -46.18860000     -32.98480000     -70.35560000
C      -45.14550000     -34.76710000     -70.00730000
C      -44.30320000     -35.54060000     -69.29920000
C      -45.96960000     -35.48270000     -70.96640000
H      -43.71910000     -35.09650000     -68.47110000
C      -45.84560000     -36.87590000     -70.74580000
C      -46.93160000     -35.22290000     -71.99460000
C      -47.53000000     -36.35830000     -72.46200000
S      -44.63790000     -37.26690000     -69.59120000
S      -46.84000000     -37.82050000     -71.75200000
H      -48.39830000     -36.27600000     -73.21470000
