40
Properties=species:S:1:pos:R:3 #=T CELL(abcABC):=T 1.889726e+02=T 90.00000=T Traj:=T positionsangstrom=T Step:=T 0=T Bead:=T pbc="F F F"
C      -43.06240000     -31.29970000     -73.59320000
C      -44.32430000     -30.72330000     -73.28480000
C      -44.67040000     -30.22000000     -72.00420000
C      -43.76230000     -30.31580000     -70.97240000
C      -42.43910000     -30.84860000     -71.31260000
C      -42.07020000     -31.33090000     -72.57040000
H      -42.88100000     -31.64830000     -74.55930000
H      -45.70640000     -29.88540000     -71.90880000
H      -41.76460000     -30.85650000     -70.46980000
H      -41.00460000     -31.60030000     -72.85270000
C      -43.95050000     -30.00680000     -69.50600000
H      -44.05800000     -28.90730000     -69.37260000
H      -43.01810000     -30.27440000     -68.95860000
C      -45.34760000     -30.79980000     -74.36300000
H      -45.67220000     -29.79710000     -74.60280000
H      -45.01760000     -31.09750000     -75.42850000
S      -45.35080000     -30.75660000     -68.70700000
S      -46.93110000     -31.57080000     -73.89310000
C      -44.73340000     -32.59830000     -68.77410000
H      -43.66540000     -32.55700000     -68.63060000
H      -45.15220000     -33.19450000     -67.94740000
C      -46.46330000     -33.25730000     -73.35200000
H      -45.41110000     -33.27660000     -72.92540000
H      -46.44770000     -33.86990000     -74.24670000
C      -47.42970000     -33.83740000     -72.32470000
H      -47.60180000     -33.13420000     -71.55760000
H      -48.37750000     -33.95290000     -72.91660000
C      -44.96520000     -33.21740000     -70.13980000
H      -44.09480000     -32.99480000     -70.82730000
H      -45.98170000     -32.85620000     -70.43100000
C      -45.09390000     -34.73510000     -69.99900000
C      -44.34220000     -35.52940000     -69.19690000
C      -45.95000000     -35.47220000     -70.87810000
H      -43.57740000     -35.29630000     -68.45040000
C      -45.84710000     -36.86380000     -70.63670000
C      -46.98820000     -35.18980000     -71.84380000
C      -47.68350000     -36.30080000     -72.27680000
S      -44.65690000     -37.18450000     -69.43480000
S      -46.92540000     -37.74250000     -71.61840000
H      -48.57750000     -36.26720000     -72.91420000
