40
Properties=species:S:1:pos:R:3 #=T CELL(abcABC):=T 1.889726e+02=T 90.00000=T Traj:=T positionsangstrom=T Step:=T 0=T Bead:=T pbc="F F F"
C      -43.18710000     -31.05780000     -73.53380000
C      -44.42120000     -30.58100000     -73.08830000
C      -44.68780000     -30.25500000     -71.67530000
C      -43.56130000     -30.53790000     -70.85020000
C      -42.27910000     -30.89560000     -71.30460000
C      -42.08520000     -31.13980000     -72.66730000
H      -43.00020000     -31.44290000     -74.58640000
H      -45.65680000     -29.93730000     -71.33980000
H      -41.44800000     -30.81730000     -70.61280000
H      -41.17740000     -31.56110000     -73.02990000
C      -43.68060000     -30.21090000     -69.34610000
H      -43.76480000     -29.14110000     -69.15580000
H      -42.92820000     -30.59280000     -68.68360000
C      -45.56500000     -30.48880000     -74.13280000
H      -45.91870000     -29.47320000     -74.26420000
H      -45.14680000     -30.90790000     -74.98430000
S      -45.28770000     -30.73770000     -68.51100000
S      -47.05950000     -31.55900000     -73.97690000
C      -44.97360000     -32.60480000     -68.56720000
H      -43.97680000     -32.88690000     -68.20080000
H      -45.63820000     -33.03420000     -67.81510000
C      -46.41180000     -33.13340000     -73.37050000
H      -45.56760000     -32.81730000     -72.73850000
H      -45.99060000     -33.87320000     -74.05940000
C      -47.48020000     -33.92360000     -72.47180000
H      -47.74110000     -33.33040000     -71.56650000
H      -48.39770000     -33.90810000     -73.06960000
C      -45.23980000     -33.19740000     -69.92070000
H      -44.54830000     -32.84080000     -70.72230000
H      -46.18180000     -32.70450000     -70.32200000
C      -45.28920000     -34.71100000     -69.99810000
C      -44.43760000     -35.46530000     -69.25570000
C      -46.03250000     -35.50370000     -70.96780000
H      -43.83380000     -35.09020000     -68.45740000
C      -45.85410000     -36.86840000     -70.72960000
C      -47.00120000     -35.30150000     -71.99810000
C      -47.51270000     -36.46790000     -72.48660000
S      -44.51230000     -37.16250000     -69.62930000
S      -46.75080000     -37.88830000     -71.85010000
H      -48.29970000     -36.55370000     -73.31460000
