40
Properties=species:S:1:pos:R:3 #=T CELL(abcABC):=T 1.889726e+02=T 90.00000=T Traj:=T positionsangstrom=T Step:=T 0=T Bead:=T pbc="F F F"
C      -46.71900000     -37.22760000     -72.29210000
C      -46.60860000     -36.59710000     -71.00760000
C      -45.32110000     -36.21490000     -70.53860000
C      -44.21540000     -36.40060000     -71.32890000
C      -44.36280000     -37.11990000     -72.54920000
C      -45.61940000     -37.50440000     -73.07820000
H      -47.65830000     -37.27510000     -72.91730000
H      -45.17860000     -35.92390000     -69.53770000
H      -43.41320000     -37.26280000     -73.12210000
H      -45.76670000     -38.20110000     -73.92940000
C      -42.85740000     -36.14030000     -70.76740000
H      -42.27640000     -37.03430000     -70.71840000
H      -42.89710000     -35.66060000     -69.80710000
C      -47.83690000     -36.30200000     -70.13320000
H      -48.75010000     -35.89340000     -70.71190000
H      -48.23660000     -37.26160000     -69.73180000
S      -41.89560000     -34.94630000     -71.82920000
S      -47.58960000     -34.96400000     -68.90780000
C      -42.92060000     -33.40260000     -71.69840000
H      -43.10220000     -33.17910000     -70.59500000
H      -42.30470000     -32.60010000     -72.00510000
C      -47.33620000     -33.43910000     -69.87580000
H      -48.19130000     -32.78580000     -69.72550000
H      -47.20180000     -33.81230000     -70.91710000
C      -46.06350000     -32.78980000     -69.43280000
H      -46.12470000     -32.56080000     -68.45680000
H      -45.25010000     -33.54660000     -69.50020000
C      -44.34050000     -33.39930000     -72.44610000
H      -44.97680000     -34.10830000     -71.88900000
H      -44.15490000     -33.82950000     -73.42670000
C      -44.80220000     -31.99840000     -72.58680000
C      -44.60880000     -31.25170000     -73.69200000
C      -45.29250000     -31.16790000     -71.50730000
H      -44.20520000     -31.56700000     -74.55090000
C      -45.42260000     -29.83520000     -71.82290000
C      -45.82240000     -31.52690000     -70.21590000
C      -46.34270000     -30.38000000     -69.58100000
S      -45.09500000     -29.56180000     -73.53340000
S      -46.25530000     -28.93420000     -70.58790000
H      -46.86260000     -30.32430000     -68.60220000
