40
Properties=species:S:1:pos:R:3 #=T CELL(abcABC):=T 1.889726e+02=T 90.00000=T Traj:=T positionsangstrom=T Step:=T 0=T Bead:=T pbc="F F F"
C      -46.75490000     -34.71260000     -67.70910000
C      -47.54930000     -34.29540000     -68.85680000
C      -47.50510000     -35.04700000     -70.01180000
C      -46.66990000     -36.15020000     -70.20980000
C      -45.87290000     -36.53780000     -69.13400000
C      -45.89400000     -35.84920000     -67.89260000
H      -46.59550000     -34.10890000     -66.86620000
H      -48.07370000     -34.86230000     -70.94130000
H      -45.06570000     -37.29220000     -69.19030000
H      -45.20080000     -36.20520000     -67.05260000
C      -46.71590000     -36.94490000     -71.43350000
H      -47.60880000     -36.68560000     -72.10450000
H      -46.81310000     -37.99570000     -71.20590000
C      -48.41370000     -33.00080000     -68.83450000
H      -49.30760000     -33.23440000     -68.25810000
H      -47.88640000     -32.22730000     -68.19390000
S      -45.20300000     -36.92980000     -72.54040000
S      -48.85990000     -32.23050000     -70.48640000
C      -44.40200000     -35.20210000     -72.71030000
H      -43.55530000     -35.39710000     -73.37220000
H      -45.06520000     -34.52800000     -73.24550000
C      -47.35620000     -31.33660000     -71.19310000
H      -46.92210000     -30.91330000     -70.28230000
H      -47.77270000     -30.52220000     -71.78300000
C      -46.48990000     -32.31840000     -71.97920000
H      -46.32870000     -33.31960000     -71.45030000
H      -46.99190000     -32.56470000     -72.91320000
C      -43.95200000     -34.59590000     -71.35160000
H      -43.35540000     -35.32340000     -70.71820000
H      -44.85480000     -34.47770000     -70.60990000
C      -43.25140000     -33.29480000     -71.69240000
C      -41.87060000     -33.25140000     -71.76900000
C      -43.89550000     -32.09790000     -72.20500000
H      -41.19960000     -34.03560000     -71.52380000
C      -42.98070000     -31.10360000     -72.60510000
C      -45.19700000     -31.67080000     -72.43110000
C      -45.27100000     -30.46720000     -73.04790000
S      -41.35160000     -31.64130000     -72.33570000
S      -43.70810000     -29.69910000     -73.27250000
H      -46.14740000     -29.95360000     -73.33960000
