40
Properties=species:S:1:pos:R:3 #=T CELL(abcABC):=T 1.889726e+02=T 90.00000=T Traj:=T positionsangstrom=T Step:=T 0=T Bead:=T pbc="F F F"
C      -42.94230000     -31.94550000     -73.73510000
C      -42.51720000     -32.49540000     -72.51830000
C      -42.70770000     -31.83000000     -71.26630000
C      -43.42040000     -30.60700000     -71.24940000
C      -43.74460000     -30.04290000     -72.52750000
C      -43.64130000     -30.74020000     -73.71920000
H      -42.63860000     -32.44450000     -74.72640000
H      -42.32590000     -32.30290000     -70.42490000
H      -44.23080000     -29.05080000     -72.51890000
H      -43.79730000     -30.16290000     -74.58290000
C      -43.61860000     -29.84890000     -69.91630000
H      -44.01890000     -28.86620000     -69.99920000
H      -42.70970000     -29.80840000     -69.38440000
C      -41.58990000     -33.72470000     -72.53710000
H      -40.81970000     -33.72990000     -73.30700000
H      -41.04990000     -33.78980000     -71.55410000
S      -44.90520000     -30.69330000     -68.86440000
S      -42.46390000     -35.37940000     -72.88100000
C      -44.69810000     -32.54190000     -68.63970000
H      -43.64760000     -32.70590000     -68.29420000
H      -45.33760000     -32.62230000     -67.76910000
C      -44.30230000     -35.06750000     -72.95490000
H      -44.63040000     -35.11990000     -74.02700000
H      -44.36760000     -33.93590000     -72.77230000
C      -44.94390000     -35.96270000     -71.86790000
H      -44.79360000     -36.96960000     -72.22560000
H      -44.57710000     -35.83210000     -70.89480000
C      -45.06070000     -33.56040000     -69.70330000
H      -44.82550000     -34.57920000     -69.31400000
H      -44.37920000     -33.38420000     -70.63030000
C      -46.49830000     -33.67820000     -70.06740000
C      -47.48340000     -32.88360000     -69.61680000
C      -47.00900000     -34.70910000     -70.91670000
H      -47.25470000     -32.26770000     -68.74830000
C      -48.37980000     -34.63800000     -71.09450000
C      -46.40280000     -35.73890000     -71.80240000
C      -47.34030000     -36.49150000     -72.45290000
S      -49.07700000     -33.36190000     -70.08990000
S      -48.96490000     -35.91830000     -72.12930000
H      -47.03150000     -37.19640000     -73.19320000
