40
Properties=species:S:1:pos:R:3 #=T CELL(abcABC):=T 1.889726e+02=T 90.00000=T Traj:=T positionsangstrom=T Step:=T 0=T Bead:=T pbc="F F F"
C      -42.79000000     -31.97690000     -73.82870000
C      -42.25470000     -32.51550000     -72.64110000
C      -42.62630000     -31.90210000     -71.45000000
C      -43.33690000     -30.67550000     -71.32140000
C      -43.85460000     -30.20450000     -72.54850000
C      -43.49600000     -30.82690000     -73.76360000
H      -42.77340000     -32.53170000     -74.74670000
H      -42.03910000     -32.18910000     -70.55670000
H      -44.46410000     -29.23500000     -72.59350000
H      -43.82950000     -30.38970000     -74.74390000
C      -43.48630000     -30.04530000     -69.95250000
H      -43.64160000     -28.97000000     -70.11330000
H      -42.53120000     -30.07710000     -69.33710000
C      -41.55270000     -33.79170000     -72.58340000
H      -40.73510000     -33.79740000     -73.32370000
H      -41.06800000     -33.89380000     -71.65060000
S      -44.97660000     -30.64100000     -68.94120000
S      -42.39010000     -35.42940000     -72.84000000
C      -44.62180000     -32.42290000     -68.61860000
H      -43.53960000     -32.50490000     -68.56230000
H      -45.05490000     -32.85480000     -67.75450000
C      -44.22310000     -35.10640000     -72.75680000
H      -44.69150000     -35.28910000     -73.68170000
H      -44.29540000     -34.08260000     -72.47500000
C      -44.99080000     -36.07350000     -71.79730000
H      -44.76620000     -37.08550000     -72.14460000
H      -44.36900000     -36.09450000     -70.88310000
C      -45.08390000     -33.36130000     -69.73820000
H      -44.62220000     -34.24780000     -69.43790000
H      -44.72400000     -33.02570000     -70.65910000
C      -46.60530000     -33.57190000     -69.95390000
C      -47.61820000     -32.72390000     -69.62250000
C      -47.05380000     -34.61720000     -70.88310000
H      -47.53410000     -31.85700000     -68.94240000
C      -48.40310000     -34.58420000     -71.01090000
C      -46.49950000     -35.78070000     -71.63850000
C      -47.43610000     -36.53390000     -72.28320000
S      -49.19400000     -33.29690000     -70.21990000
S      -49.00570000     -35.88690000     -72.03000000
H      -47.19270000     -37.30620000     -72.95900000
