40
Properties=species:S:1:pos:R:3 #=T CELL(abcABC):=T 1.889726e+02=T 90.00000=T Traj:=T positionsangstrom=T Step:=T 0=T Bead:=T pbc="F F F"
C      -43.01190000     -31.90920000     -73.59820000
C      -42.32170000     -32.39460000     -72.46600000
C      -42.44730000     -31.82110000     -71.22340000
C      -43.38760000     -30.80880000     -71.07220000
C      -44.15800000     -30.28800000     -72.12870000
C      -43.93260000     -30.83440000     -73.39760000
H      -42.93210000     -32.40500000     -74.49580000
H      -41.91570000     -32.22510000     -70.30690000
H      -44.99550000     -29.60860000     -71.97060000
H      -44.14400000     -30.30520000     -74.33710000
C      -43.54470000     -30.30390000     -69.68340000
H      -43.56630000     -29.19620000     -69.72570000
H      -42.74530000     -30.64290000     -68.95620000
C      -41.43600000     -33.68610000     -72.53630000
H      -40.48430000     -33.50200000     -72.98860000
H      -41.17780000     -34.05390000     -71.60820000
S      -45.17770000     -30.81290000     -69.02490000
S      -42.31720000     -35.17360000     -73.42810000
C      -44.91450000     -32.52650000     -68.27660000
H      -43.95940000     -32.64440000     -67.74410000
H      -45.65310000     -32.61990000     -67.49360000
C      -44.17970000     -34.88920000     -73.35010000
H      -44.61170000     -35.33280000     -74.29280000
H      -44.46400000     -33.77950000     -73.40890000
C      -44.76750000     -35.63630000     -72.14950000
H      -44.65660000     -36.68260000     -72.41070000
H      -44.11940000     -35.42080000     -71.29820000
C      -45.14870000     -33.61160000     -69.28330000
H      -44.95790000     -34.62630000     -68.70620000
H      -44.48930000     -33.52570000     -70.16090000
C      -46.55180000     -33.74360000     -69.80720000
C      -47.63380000     -33.17680000     -69.18540000
C      -46.93190000     -34.55580000     -70.92670000
H      -47.63840000     -32.64400000     -68.29760000
C      -48.32500000     -34.61780000     -71.09860000
C      -46.23650000     -35.38350000     -71.92210000
C      -47.09030000     -36.07530000     -72.73390000
S      -49.20320000     -33.69210000     -69.88660000
S      -48.78860000     -35.72960000     -72.35780000
H      -46.87110000     -36.70240000     -73.66770000
