40
Properties=species:S:1:pos:R:3 #=T CELL(abcABC):=T 1.889726e+02=T 90.00000=T Traj:=T positionsangstrom=T Step:=T 0=T Bead:=T pbc="F F F"
C      -46.72230000     -34.56980000     -67.77510000
C      -47.53650000     -34.22620000     -68.88060000
C      -47.56760000     -35.00050000     -70.06790000
C      -46.75120000     -36.09080000     -70.16910000
C      -45.87260000     -36.40650000     -69.11540000
C      -45.96430000     -35.69350000     -67.90660000
H      -46.78170000     -34.03520000     -66.88680000
H      -48.20430000     -34.59070000     -70.90010000
H      -45.30560000     -37.37910000     -69.24690000
H      -45.29670000     -36.03690000     -67.13780000
C      -46.74820000     -36.86020000     -71.50320000
H      -47.50250000     -36.47620000     -72.14700000
H      -47.04900000     -37.87220000     -71.29150000
C      -48.28300000     -32.85370000     -68.76200000
H      -49.24200000     -32.90180000     -68.11620000
H      -47.62990000     -32.05530000     -68.48430000
S      -45.09970000     -36.84230000     -72.40850000
S      -48.93680000     -32.38190000     -70.36660000
C      -44.54130000     -35.13420000     -72.45710000
H      -43.73310000     -35.17400000     -73.27140000
H      -45.43040000     -34.58400000     -72.76390000
C      -47.44000000     -31.60000000     -71.08130000
H      -46.83780000     -31.18130000     -70.23960000
H      -47.57660000     -30.69550000     -71.67390000
C      -46.45610000     -32.43300000     -71.93670000
H      -46.11140000     -33.28570000     -71.38400000
H      -47.06120000     -32.84380000     -72.75990000
C      -43.86650000     -34.51950000     -71.22030000
H      -43.12860000     -35.22970000     -70.96940000
H      -44.54170000     -34.34950000     -70.42870000
C      -43.16770000     -33.21350000     -71.59640000
C      -41.78680000     -33.15320000     -71.69780000
C      -43.86040000     -32.12040000     -72.20230000
H      -41.14880000     -33.89020000     -71.31460000
C      -42.98600000     -31.15240000     -72.72410000
C      -45.25510000     -31.69750000     -72.42720000
C      -45.27990000     -30.46810000     -73.03980000
S      -41.34100000     -31.71780000     -72.56370000
S      -43.73020000     -29.85490000     -73.51070000
H      -46.12340000     -29.78270000     -73.21410000
