40
Properties=species:S:1:pos:R:3 #=T CELL(abcABC):=T 1.889726e+02=T 90.00000=T Traj:=T positionsangstrom=T Step:=T 0=T Bead:=T pbc="F F F"
C      -43.25750000     -32.25920000     -74.00230000
C      -42.57050000     -32.90950000     -72.96420000
C      -42.71160000     -32.30110000     -71.69530000
C      -43.25860000     -31.09780000     -71.41600000
C      -43.69110000     -30.36300000     -72.52990000
C      -43.73030000     -30.95100000     -73.84250000
H      -43.39650000     -32.85030000     -74.82020000
H      -42.21720000     -32.96260000     -70.98660000
H      -44.11740000     -29.35570000     -72.31830000
H      -44.25860000     -30.46050000     -74.60530000
C      -43.38290000     -30.58250000     -70.06750000
H      -42.84520000     -29.68440000     -69.95470000
H      -43.01480000     -31.46680000     -69.50810000
C      -41.84950000     -34.23450000     -73.24680000
H      -42.08490000     -34.59090000     -74.31480000
H      -40.76030000     -34.03370000     -73.48740000
S      -45.19910000     -30.42160000     -69.61740000
S      -41.93280000     -35.52620000     -71.90570000
C      -45.59980000     -31.59060000     -68.30060000
H      -44.76540000     -31.46340000     -67.48590000
H      -46.52750000     -31.19850000     -67.91470000
C      -43.72150000     -35.94970000     -72.07840000
H      -43.62030000     -37.05150000     -72.10940000
H      -43.97230000     -35.69380000     -73.10440000
C      -44.60140000     -35.35500000     -71.05090000
H      -44.38020000     -35.87340000     -70.10550000
H      -44.33550000     -34.29910000     -71.04140000
C      -45.83440000     -33.08160000     -68.72100000
H      -45.93360000     -33.73290000     -67.81630000
H      -44.95870000     -33.31830000     -69.27930000
C      -46.93300000     -33.34610000     -69.69860000
C      -48.13640000     -32.72590000     -69.61390000
C      -47.01590000     -34.34250000     -70.75750000
H      -48.34160000     -31.81980000     -69.07520000
C      -48.29480000     -34.52440000     -71.27910000
C      -46.05640000     -35.33100000     -71.36910000
C      -46.69210000     -36.20050000     -72.22540000
S      -49.43520000     -33.30500000     -70.74530000
S      -48.34920000     -35.79640000     -72.45600000
H      -46.28490000     -36.95210000     -72.84570000
