40
Properties=species:S:1:pos:R:3 #=T CELL(abcABC):=T 1.889726e+02=T 90.00000=T Traj:=T positionsangstrom=T Step:=T 0=T Bead:=T pbc="F F F"
C      -47.28470000     -33.55090000     -67.70550000
C      -47.95200000     -33.48320000     -68.92430000
C      -47.68460000     -34.54350000     -69.86890000
C      -46.92140000     -35.67490000     -69.52850000
C      -46.33410000     -35.73950000     -68.29260000
C      -46.40400000     -34.61150000     -67.40320000
H      -47.56160000     -32.87930000     -66.93940000
H      -48.24440000     -34.43680000     -70.80280000
H      -45.81220000     -36.65360000     -68.05680000
H      -45.88600000     -34.56250000     -66.41770000
C      -46.98930000     -36.78670000     -70.52650000
H      -47.74980000     -36.63380000     -71.30330000
H      -47.27390000     -37.67630000     -70.06070000
C      -48.77030000     -32.23570000     -69.23340000
H      -49.78930000     -32.34940000     -68.77280000
H      -48.31470000     -31.41150000     -68.69420000
S      -45.37170000     -37.25920000     -71.32530000
S      -48.93830000     -31.80580000     -71.03320000
C      -44.76170000     -35.79410000     -72.22230000
H      -44.10330000     -36.30270000     -72.94050000
H      -45.61520000     -35.28630000     -72.68230000
C      -47.17000000     -31.38260000     -71.58390000
H      -47.12040000     -30.36340000     -71.29720000
H      -47.36510000     -31.33870000     -72.65830000
C      -45.93430000     -32.20410000     -71.31520000
H      -45.58340000     -32.37590000     -70.27770000
H      -46.05270000     -33.18680000     -71.70520000
C      -43.85710000     -34.86290000     -71.36800000
H      -43.15170000     -35.51080000     -70.83610000
H      -44.41130000     -34.27510000     -70.57830000
C      -43.15030000     -33.78830000     -72.20310000
C      -41.94420000     -34.03770000     -72.70110000
C      -43.57940000     -32.41880000     -72.52030000
H      -41.25820000     -34.85450000     -72.53360000
C      -42.60970000     -31.69550000     -73.21050000
C      -44.80880000     -31.65400000     -72.13680000
C      -44.70970000     -30.38630000     -72.59670000
S      -41.19130000     -32.60050000     -73.54120000
S      -43.25020000     -30.09300000     -73.51080000
H      -45.44370000     -29.59730000     -72.38880000
