40
Properties=species:S:1:pos:R:3 #=T CELL(abcABC):=T 1.889726e+02=T 90.00000=T Traj:=T positionsangstrom=T Step:=T 0=T Bead:=T pbc="F F F"
C      -43.06940000     -37.03640000     -72.16970000
C      -44.26020000     -36.77610000     -71.46800000
C      -44.17850000     -35.80970000     -70.42420000
C      -42.95310000     -35.29410000     -70.00940000
C      -41.73650000     -35.72610000     -70.59670000
C      -41.84750000     -36.48160000     -71.75680000
H      -43.26610000     -37.65810000     -73.07260000
H      -45.11220000     -35.67410000     -69.81790000
H      -40.73120000     -35.45910000     -70.32120000
H      -40.92170000     -36.80820000     -72.24910000
C      -42.93430000     -34.46570000     -68.63190000
H      -42.45800000     -35.06650000     -67.81670000
H      -43.94920000     -34.17590000     -68.26600000
C      -45.65830000     -37.24010000     -71.83140000
H      -45.66300000     -38.32650000     -71.88330000
H      -46.36630000     -36.98170000     -71.06790000
S      -42.05120000     -32.83860000     -68.84930000
S      -46.19610000     -36.63990000     -73.48540000
C      -43.48610000     -31.71550000     -69.33020000
H      -44.17980000     -31.75840000     -68.51360000
H      -43.01000000     -30.72630000     -69.40840000
C      -47.29280000     -35.17220000     -73.05260000
H      -48.16410000     -35.51090000     -72.40590000
H      -47.66170000     -34.78480000     -74.03660000
C      -46.46970000     -34.14590000     -72.31780000
H      -46.13960000     -34.62360000     -71.31730000
H      -45.55870000     -33.95510000     -72.78900000
C      -44.23960000     -32.14340000     -70.65020000
H      -44.73340000     -33.09270000     -70.49390000
H      -43.52310000     -32.21750000     -71.45780000
C      -45.39870000     -31.14130000     -70.91130000
C      -45.40590000     -29.81770000     -70.56890000
C      -46.61230000     -31.54380000     -71.56960000
H      -44.60110000     -29.31360000     -69.94390000
C      -47.53060000     -30.50520000     -71.73140000
C      -47.17220000     -32.77330000     -72.15530000
C      -48.45660000     -32.59230000     -72.68870000
S      -46.90140000     -28.99920000     -71.04150000
S      -48.95980000     -30.90470000     -72.56050000
H      -49.21530000     -33.25670000     -73.03350000
