40
Properties=species:S:1:pos:R:3 #=T CELL(abcABC):=T 1.889726e+02=T 90.00000=T Traj:=T positionsangstrom=T Step:=T 0=T Bead:=T pbc="F F F"
C      -43.39930000     -33.06200000     -73.45840000
C      -42.67700000     -32.99710000     -72.15020000
C      -43.24190000     -32.23870000     -71.09620000
C      -44.40450000     -31.46150000     -71.31970000
C      -45.00440000     -31.52250000     -72.56490000
C      -44.61580000     -32.42830000     -73.55780000
H      -42.94660000     -33.66740000     -74.22580000
H      -42.73590000     -32.25700000     -70.14110000
H      -45.92280000     -30.93650000     -72.66460000
H      -45.10210000     -32.42240000     -74.57070000
C      -44.65960000     -30.35740000     -70.29180000
H      -44.74120000     -29.33590000     -70.77880000
H      -43.80610000     -30.28580000     -69.68480000
C      -41.41790000     -33.73730000     -72.03650000
H      -40.85800000     -33.68940000     -72.99110000
H      -40.81660000     -33.21800000     -71.28620000
S      -46.20900000     -30.48090000     -69.29520000
S      -41.49270000     -35.43360000     -71.40620000
C      -45.84210000     -31.88530000     -68.06800000
H      -44.90390000     -31.63440000     -67.56970000
H      -46.60410000     -31.81650000     -67.26950000
C      -43.16950000     -36.05330000     -71.88780000
H      -43.18000000     -37.17640000     -71.91450000
H      -43.51580000     -35.75520000     -72.94440000
C      -44.32430000     -35.58880000     -70.96150000
H      -44.63640000     -36.46400000     -70.36550000
H      -44.13990000     -34.75850000     -70.26180000
C      -45.79400000     -33.27740000     -68.78630000
H      -45.92230000     -34.08880000     -68.08370000
H      -44.75920000     -33.41590000     -69.13590000
C      -46.82310000     -33.46860000     -69.85140000
C      -48.03120000     -32.76300000     -69.90360000
C      -46.60610000     -34.30680000     -71.00020000
H      -48.30150000     -32.07350000     -69.08680000
C      -47.71940000     -34.16430000     -71.87920000
C      -45.55730000     -35.15970000     -71.58350000
C      -45.91340000     -35.53570000     -72.86200000
S      -48.87320000     -32.95410000     -71.39250000
S      -47.56810000     -35.03560000     -73.36570000
H      -45.32570000     -36.13840000     -73.47360000
