40
Properties=species:S:1:pos:R:3 #=T CELL(abcABC):=T 1.889726e+02=T 90.00000=T Traj:=T positionsangstrom=T Step:=T 0=T Bead:=T pbc="F F F"
C      -46.69790000     -32.70040000     -67.93990000
C      -47.79640000     -32.91530000     -68.77450000
C      -47.92360000     -34.14350000     -69.41580000
C      -46.98840000     -35.17470000     -69.28360000
C      -45.97700000     -35.00360000     -68.36960000
C      -45.80120000     -33.75030000     -67.70040000
H      -46.44670000     -31.75810000     -67.34950000
H      -48.78530000     -34.34830000     -70.08380000
H      -45.34870000     -35.82040000     -68.15670000
H      -45.02600000     -33.64730000     -67.03890000
C      -47.20760000     -36.42070000     -70.07420000
H      -47.79260000     -36.11210000     -70.94870000
H      -47.71630000     -37.30120000     -69.65880000
C      -48.84340000     -31.83060000     -69.10180000
H      -49.86880000     -31.98200000     -68.75980000
H      -48.60840000     -30.80370000     -68.90190000
S      -45.57020000     -37.25680000     -70.62440000
S      -48.93790000     -31.91090000     -70.98540000
C      -44.77860000     -36.05180000     -71.78670000
H      -44.16470000     -36.66360000     -72.43920000
H      -45.60910000     -35.61880000     -72.34850000
C      -47.13820000     -31.37420000     -71.51700000
H      -46.71810000     -30.73590000     -70.70110000
H      -47.27210000     -30.61940000     -72.35640000
C      -46.22480000     -32.44980000     -72.03350000
H      -45.97410000     -33.31570000     -71.38180000
H      -46.65270000     -32.93580000     -72.86650000
C      -43.84870000     -34.94400000     -71.19780000
H      -43.00130000     -35.34850000     -70.63400000
H      -44.27900000     -34.17500000     -70.49690000
C      -43.26120000     -34.10540000     -72.37250000
C      -42.04680000     -34.44300000     -73.00130000
C      -43.72970000     -32.77860000     -72.70450000
H      -41.38720000     -35.33360000     -72.83250000
C      -42.67470000     -32.07660000     -73.38000000
C      -44.94130000     -31.93290000     -72.55070000
C      -44.69000000     -30.69870000     -73.04090000
S      -41.34260000     -33.03960000     -73.70070000
S      -43.03610000     -30.42770000     -73.73090000
H      -45.30980000     -29.78900000     -72.95960000
