40
Properties=species:S:1:pos:R:3 #=T CELL(abcABC):=T 1.889726e+02=T 90.00000=T Traj:=T positionsangstrom=T Step:=T 0=T Bead:=T pbc="F F F"
C      -43.28430000     -33.00080000     -73.78760000
C      -42.35520000     -33.05570000     -72.73470000
C      -42.46210000     -32.21720000     -71.62340000
C      -43.58270000     -31.37890000     -71.48750000
C      -44.50070000     -31.33130000     -72.50240000
C      -44.34760000     -32.02160000     -73.68750000
H      -43.32540000     -33.72510000     -74.66400000
H      -41.99090000     -32.36010000     -70.66480000
H      -45.30060000     -30.63150000     -72.36280000
H      -45.22490000     -31.94910000     -74.39230000
C      -43.83530000     -30.54590000     -70.24710000
H      -43.41940000     -29.57380000     -70.43650000
H      -43.27290000     -30.86220000     -69.35590000
C      -41.32440000     -34.09200000     -72.65750000
H      -41.19740000     -34.55920000     -73.66050000
H      -40.37970000     -33.66220000     -72.41710000
S      -45.53240000     -30.26950000     -69.73670000
S      -41.68360000     -35.47430000     -71.50710000
C      -45.78970000     -31.54020000     -68.38190000
H      -44.97310000     -31.45710000     -67.63580000
H      -46.73940000     -31.17200000     -67.86830000
C      -43.46380000     -35.88410000     -71.94240000
H      -43.68150000     -36.87580000     -71.88740000
H      -43.54460000     -35.59470000     -72.99460000
C      -44.46990000     -35.15760000     -70.99500000
H      -44.52870000     -35.64750000     -70.05270000
H      -44.07780000     -34.22910000     -70.54910000
C      -45.83050000     -33.03830000     -68.78560000
H      -45.95220000     -33.70210000     -67.89710000
H      -44.88310000     -33.33530000     -69.20170000
C      -46.99650000     -33.38440000     -69.68810000
C      -48.28240000     -32.95870000     -69.45610000
C      -46.92070000     -34.16160000     -70.89280000
H      -48.71230000     -32.36970000     -68.70970000
C      -48.14810000     -34.32060000     -71.51310000
C      -45.89040000     -34.95980000     -71.55720000
C      -46.34690000     -35.48970000     -72.72090000
S      -49.41750000     -33.48630000     -70.66670000
S      -48.06250000     -35.26990000     -72.96820000
H      -45.74030000     -35.97960000     -73.48010000
