40
Properties=species:S:1:pos:R:3 #=T CELL(abcABC):=T 1.889726e+02=T 90.00000=T Traj:=T positionsangstrom=T Step:=T 0=T Bead:=T pbc="F F F"
C      -44.03390000     -35.43280000     -74.20070000
C      -44.03860000     -34.07140000     -74.24950000
C      -45.34450000     -33.41060000     -74.25760000
C      -46.49360000     -34.22170000     -74.38250000
C      -46.35750000     -35.58750000     -74.42110000
C      -45.11570000     -36.25210000     -74.38470000
H      -43.04520000     -36.00440000     -74.30710000
H      -45.46190000     -32.31560000     -74.10390000
H      -47.28180000     -36.14150000     -74.56090000
H      -44.93050000     -37.32180000     -74.20760000
C      -47.81210000     -33.54610000     -74.53490000
H      -48.64890000     -34.20310000     -74.58690000
H      -47.78520000     -33.05190000     -75.53700000
C      -42.81340000     -33.19130000     -74.16420000
H      -42.40670000     -33.43600000     -75.17280000
H      -42.97070000     -32.13990000     -74.11550000
S      -48.24590000     -32.29640000     -73.18800000
S      -41.66600000     -33.70380000     -72.76460000
C      -48.35050000     -33.47290000     -71.78520000
H      -49.04920000     -33.08680000     -71.04920000
H      -48.90390000     -34.31400000     -72.17850000
C      -42.77790000     -33.75860000     -71.31940000
H      -42.10590000     -33.72860000     -70.38660000
H      -43.27560000     -34.67950000     -71.21090000
C      -43.73110000     -32.55080000     -71.28750000
H      -43.19060000     -31.65930000     -71.61340000
H      -44.61730000     -32.79110000     -71.90350000
C      -47.01420000     -33.96030000     -71.17700000
H      -46.22610000     -33.62590000     -71.84230000
H      -47.00060000     -35.08240000     -71.25200000
C      -46.68240000     -33.48960000     -69.70460000
C      -47.63250000     -33.55080000     -68.76630000
C      -45.41330000     -32.95810000     -69.23460000
H      -48.62820000     -33.96480000     -68.88650000
C      -45.44520000     -32.64730000     -67.84550000
C      -44.16460000     -32.43720000     -69.82850000
C      -43.33130000     -31.89540000     -68.89060000
S      -46.94690000     -33.20040000     -67.16650000
S      -43.91250000     -31.98660000     -67.22650000
H      -42.35590000     -31.44590000     -69.06600000
