40
Properties=species:S:1:pos:R:3 #=T CELL(abcABC):=T 1.889726e+02=T 90.00000=T Traj:=T positionsangstrom=T Step:=T 0=T Bead:=T pbc="F F F"
C      -43.74380000     -32.94090000     -73.22140000
C      -42.79280000     -33.02470000     -72.19340000
C      -43.00870000     -32.20580000     -71.07880000
C      -44.06880000     -31.26440000     -71.04640000
C      -44.98950000     -31.14640000     -72.09140000
C      -44.81730000     -32.05600000     -73.16320000
H      -43.81050000     -33.64680000     -74.00850000
H      -42.41910000     -32.31040000     -70.23560000
H      -45.94660000     -30.57300000     -72.02310000
H      -45.42120000     -31.91900000     -74.02080000
C      -44.17070000     -30.38390000     -69.80310000
H      -43.81790000     -29.36520000     -70.14900000
H      -43.48590000     -30.60060000     -69.00840000
C      -41.62710000     -33.99100000     -72.27430000
H      -41.55580000     -34.47830000     -73.24710000
H      -40.69620000     -33.39480000     -72.08270000
S      -45.96580000     -30.20280000     -69.22570000
S      -41.57760000     -35.16120000     -70.86320000
C      -46.28300000     -31.76690000     -68.28640000
H      -45.58920000     -31.76310000     -67.45150000
H      -47.29000000     -31.63510000     -67.85070000
C      -43.09350000     -36.19230000     -71.24920000
H      -43.04940000     -37.24580000     -70.87430000
H      -43.23490000     -36.27250000     -72.26720000
C      -44.38290000     -35.46830000     -70.65870000
H      -44.81440000     -36.03990000     -69.79040000
H      -44.17910000     -34.51250000     -70.32580000
C      -46.06230000     -33.02620000     -69.07210000
H      -46.24070000     -33.80770000     -68.34610000
H      -45.01090000     -33.10460000     -69.33670000
C      -46.95510000     -33.36450000     -70.27250000
C      -48.13700000     -32.77380000     -70.52220000
C      -46.64640000     -34.34860000     -71.30790000
H      -48.59710000     -32.04460000     -69.89340000
C      -47.66720000     -34.45920000     -72.23380000
C      -45.56270000     -35.30200000     -71.61570000
C      -45.75470000     -35.77530000     -72.84080000
S      -48.98410000     -33.31110000     -71.96170000
S      -47.34210000     -35.41900000     -73.60560000
H      -45.05520000     -36.54710000     -73.19360000
