40
Properties=species:S:1:pos:R:3 #=T CELL(abcABC):=T 1.889726e+02=T 90.00000=T Traj:=T positionsangstrom=T Step:=T 0=T Bead:=T pbc="F F F"
C      -43.62260000     -32.79390000     -73.23410000
C      -42.67260000     -32.87450000     -72.18830000
C      -42.85680000     -32.03700000     -71.06460000
C      -44.03130000     -31.17660000     -70.90390000
C      -44.97000000     -31.25510000     -71.95590000
C      -44.68380000     -31.95030000     -73.13040000
H      -43.44970000     -33.35760000     -74.16350000
H      -42.28600000     -32.27220000     -70.15940000
H      -45.93110000     -30.78140000     -71.89030000
H      -45.41840000     -31.91600000     -73.91350000
C      -44.19190000     -30.44290000     -69.62110000
H      -43.67840000     -29.50090000     -69.54510000
H      -43.70140000     -31.07130000     -68.78590000
C      -41.47240000     -33.87580000     -72.26830000
H      -41.47250000     -34.40790000     -73.23480000
H      -40.54150000     -33.38580000     -72.15980000
S      -46.00070000     -30.20250000     -69.16610000
S      -41.63010000     -35.19170000     -70.96380000
C      -46.52180000     -31.75800000     -68.30730000
H      -46.03320000     -31.88170000     -67.33290000
H      -47.58070000     -31.50550000     -68.13560000
C      -43.11680000     -36.25080000     -71.25090000
H      -42.84420000     -37.15090000     -70.76540000
H      -43.21680000     -36.39850000     -72.41490000
C      -44.37890000     -35.55580000     -70.62460000
H      -44.67280000     -36.03870000     -69.66010000
H      -44.11440000     -34.50060000     -70.25040000
C      -46.37690000     -33.12010000     -69.02180000
H      -46.59840000     -33.93340000     -68.33470000
H      -45.29900000     -33.27040000     -69.20940000
C      -47.07650000     -33.24880000     -70.35230000
C      -48.18010000     -32.54700000     -70.77490000
C      -46.67230000     -34.39640000     -71.27830000
H      -48.61950000     -31.65970000     -70.24500000
C      -47.66590000     -34.42910000     -72.33840000
C      -45.60200000     -35.32440000     -71.45980000
C      -45.81910000     -36.12600000     -72.54960000
S      -48.84890000     -33.11070000     -72.28380000
S      -47.32010000     -35.69240000     -73.49870000
H      -45.20110000     -36.84690000     -72.97990000
