40
Properties=species:S:1:pos:R:3 #=T CELL(abcABC):=T 1.889726e+02=T 90.00000=T Traj:=T positionsangstrom=T Step:=T 0=T Bead:=T pbc="F F F"
C      -43.17300000     -32.99510000     -72.81700000
C      -42.51400000     -33.18820000     -71.58560000
C      -42.85940000     -32.28090000     -70.56280000
C      -43.75870000     -31.24220000     -70.76380000
C      -44.42540000     -31.19050000     -72.00650000
C      -44.15270000     -32.07810000     -73.04630000
H      -42.85340000     -33.66850000     -73.55590000
H      -42.41100000     -32.45160000     -69.52010000
H      -45.16400000     -30.37990000     -72.13850000
H      -44.56060000     -31.96910000     -74.06820000
C      -44.04880000     -30.21830000     -69.75200000
H      -43.76160000     -29.21460000     -70.06880000
H      -43.57660000     -30.34000000     -68.82400000
C      -41.40920000     -34.19980000     -71.51450000
H      -40.97070000     -34.46720000     -72.53140000
H      -40.63290000     -33.77020000     -70.88420000
S      -45.88660000     -30.03700000     -69.46520000
S      -41.94440000     -35.77240000     -70.58580000
C      -46.27410000     -31.66440000     -68.62070000
H      -45.68910000     -31.69910000     -67.70660000
H      -47.34750000     -31.55280000     -68.43450000
C      -43.59410000     -36.40220000     -71.27850000
H      -43.59870000     -37.47490000     -71.10730000
H      -43.50460000     -36.31100000     -72.42010000
C      -44.76040000     -35.68730000     -70.66370000
H      -45.16050000     -36.32970000     -69.90000000
H      -44.31780000     -34.76260000     -70.32940000
C      -46.03620000     -32.90840000     -69.44240000
H      -46.43990000     -33.78640000     -68.83390000
H      -45.00640000     -33.13120000     -69.55270000
C      -46.87040000     -33.02000000     -70.70520000
C      -47.89400000     -32.17720000     -71.06390000
C      -46.71770000     -34.17340000     -71.56060000
H      -48.15770000     -31.26260000     -70.57960000
C      -47.81070000     -34.18620000     -72.45280000
C      -45.87080000     -35.36780000     -71.67430000
C      -46.37120000     -36.19950000     -72.63230000
S      -48.81250000     -32.84340000     -72.43450000
S      -47.71410000     -35.54230000     -73.49050000
H      -46.09700000     -37.17670000     -72.86550000
