40
Properties=species:S:1:pos:R:3 #=T CELL(abcABC):=T 1.889726e+02=T 90.00000=T Traj:=T positionsangstrom=T Step:=T 0=T Bead:=T pbc="F F F"
C      -42.35710000     -33.42050000     -73.12060000
C      -42.16230000     -33.68970000     -71.69530000
C      -42.55960000     -32.76410000     -70.67120000
C      -43.38210000     -31.68710000     -71.00230000
C      -43.65290000     -31.42670000     -72.35490000
C      -43.11610000     -32.29430000     -73.39360000
H      -41.97000000     -34.21080000     -73.82940000
H      -42.48500000     -33.03260000     -69.64010000
H      -44.32570000     -30.60160000     -72.54860000
H      -43.33130000     -32.00650000     -74.40120000
C      -43.96140000     -30.72000000     -69.93120000
H      -43.28490000     -29.81970000     -69.97340000
H      -43.83760000     -31.12100000     -68.91710000
C      -41.29480000     -34.92360000     -71.34380000
H      -41.11360000     -35.50890000     -72.29140000
H      -40.40940000     -34.65760000     -70.89920000
S      -45.67210000     -30.07870000     -70.18010000
S      -42.13960000     -36.07310000     -70.13920000
C      -46.59990000     -30.97560000     -68.87260000
H      -45.99860000     -30.87320000     -67.90030000
H      -47.56240000     -30.47620000     -68.66590000
C      -43.82670000     -36.30880000     -70.92010000
H      -44.29240000     -37.31150000     -70.76470000
H      -43.63770000     -36.28170000     -71.97210000
C      -44.89040000     -35.21200000     -70.33800000
H      -45.24530000     -35.59680000     -69.37940000
H      -44.32080000     -34.22800000     -70.24600000
C      -46.73010000     -32.48820000     -69.16740000
H      -47.19330000     -33.01450000     -68.27080000
H      -45.68950000     -32.84530000     -69.26150000
C      -47.45820000     -32.72650000     -70.45550000
C      -48.56680000     -32.05050000     -70.88750000
C      -47.14800000     -33.88520000     -71.24010000
H      -49.06470000     -31.21920000     -70.41370000
C      -47.96590000     -34.01700000     -72.35330000
C      -46.08230000     -34.93250000     -71.29040000
C      -46.19440000     -35.73580000     -72.46840000
S      -49.17260000     -32.69660000     -72.49850000
S      -47.58680000     -35.32600000     -73.43810000
H      -45.75070000     -36.66450000     -72.62990000
