40
Properties=species:S:1:pos:R:3 #=T CELL(abcABC):=T 1.889726e+02=T 90.00000=T Traj:=T positionsangstrom=T Step:=T 0=T Bead:=T pbc="F F F"
C      -42.51280000     -33.35750000     -73.10760000
C      -42.15120000     -33.59860000     -71.74010000
C      -42.64890000     -32.78420000     -70.70910000
C      -43.47490000     -31.68740000     -70.97330000
C      -43.86720000     -31.41210000     -72.31890000
C      -43.27750000     -32.18400000     -73.37770000
H      -42.10590000     -33.95470000     -73.89730000
H      -42.23320000     -32.90350000     -69.70230000
H      -44.41840000     -30.40660000     -72.49990000
H      -43.59590000     -31.92630000     -74.36050000
C      -43.85470000     -30.83250000     -69.79440000
H      -43.09630000     -30.05200000     -69.59910000
H      -43.93730000     -31.41410000     -68.87630000
C      -41.29650000     -34.78460000     -71.43700000
H      -41.02510000     -35.20900000     -72.41180000
H      -40.27040000     -34.57780000     -70.93810000
S      -45.59440000     -30.10460000     -70.08060000
S      -42.19100000     -35.95740000     -70.28450000
C      -46.58790000     -31.00510000     -68.80090000
H      -46.18040000     -30.75760000     -67.81310000
H      -47.51130000     -30.49660000     -68.84860000
C      -43.83330000     -36.02300000     -71.00420000
H      -44.09110000     -37.10480000     -70.96060000
H      -43.81180000     -35.75110000     -72.06420000
C      -44.89580000     -35.00970000     -70.39820000
H      -45.18600000     -35.20340000     -69.37050000
H      -44.47410000     -34.04070000     -70.21600000
C      -46.78420000     -32.54280000     -69.04450000
H      -47.50260000     -32.86280000     -68.31670000
H      -45.88420000     -33.16280000     -68.88470000
C      -47.36030000     -32.87620000     -70.44890000
C      -48.41180000     -32.17240000     -70.91560000
C      -47.01130000     -33.91210000     -71.34900000
H      -48.79520000     -31.24410000     -70.63490000
C      -47.96550000     -34.11880000     -72.32620000
C      -46.06140000     -35.02860000     -71.34960000
C      -46.25860000     -35.88010000     -72.46180000
S      -49.05810000     -32.79550000     -72.41620000
S      -47.60110000     -35.38660000     -73.45620000
H      -45.78290000     -36.76020000     -72.59310000
