40
Properties=species:S:1:pos:R:3 #=T CELL(abcABC):=T 1.889726e+02=T 90.00000=T Traj:=T positionsangstrom=T Step:=T 0=T Bead:=T pbc="F F F"
C      -42.16100000     -33.69530000     -72.14520000
C      -41.95690000     -33.54620000     -70.74230000
C      -42.62580000     -32.45540000     -70.14630000
C      -43.23570000     -31.45380000     -70.92810000
C      -43.53060000     -31.70190000     -72.26110000
C      -42.93100000     -32.83550000     -72.90170000
H      -41.60710000     -34.51250000     -72.62340000
H      -42.51000000     -32.31420000     -69.07250000
H      -43.93110000     -31.07180000     -73.02910000
H      -43.22190000     -33.15950000     -73.92220000
C      -43.78170000     -30.22010000     -70.22490000
H      -43.09030000     -29.29390000     -70.47590000
H      -43.82930000     -30.38930000     -69.15370000
C      -41.27350000     -34.66740000     -70.02330000
H      -40.50520000     -35.23570000     -70.52960000
H      -40.87310000     -34.42530000     -69.06330000
S      -45.48470000     -29.65010000     -70.78990000
S      -42.51550000     -36.00280000     -69.49490000
C      -46.64550000     -30.63580000     -69.72420000
H      -46.40180000     -30.45930000     -68.64160000
H      -47.62350000     -30.14340000     -69.95830000
C      -43.92660000     -36.09930000     -70.71010000
H      -44.26730000     -37.07530000     -70.46320000
H      -43.41870000     -36.20720000     -71.67440000
C      -44.93230000     -34.97190000     -70.51610000
H      -45.33520000     -35.07430000     -69.51010000
H      -44.48620000     -34.01950000     -70.71140000
C      -46.55800000     -32.11190000     -69.85630000
H      -46.97250000     -32.53680000     -68.97270000
H      -45.58150000     -32.48060000     -69.89720000
C      -47.26680000     -32.71260000     -71.08380000
C      -48.28810000     -32.02670000     -71.64860000
C      -47.05460000     -33.99850000     -71.73310000
H      -48.61950000     -31.06940000     -71.49800000
C      -47.97740000     -34.22240000     -72.73840000
C      -46.07850000     -35.08540000     -71.48520000
C      -46.44150000     -36.16130000     -72.26540000
S      -49.18870000     -32.92960000     -72.86830000
S      -47.90060000     -35.92760000     -73.25680000
H      -46.04440000     -37.14900000     -72.34250000
