40
Properties=species:S:1:pos:R:3 #=T CELL(abcABC):=T 1.889726e+02=T 90.00000=T Traj:=T positionsangstrom=T Step:=T 0=T Bead:=T pbc="F F F"
C      -41.79360000     -33.47880000     -72.31970000
C      -41.97350000     -33.14680000     -70.96640000
C      -42.46700000     -31.87230000     -70.59000000
C      -42.93650000     -30.94390000     -71.49590000
C      -42.79750000     -31.35670000     -72.81340000
C      -42.21530000     -32.56240000     -73.25310000
H      -41.34740000     -34.42830000     -72.75480000
H      -42.52330000     -31.83110000     -69.48410000
H      -43.20450000     -30.67760000     -73.56040000
H      -42.10050000     -32.63120000     -74.29810000
C      -43.58170000     -29.72940000     -70.93510000
H      -43.32740000     -28.89460000     -71.66120000
H      -43.26500000     -29.48580000     -69.94260000
C      -41.48790000     -34.05300000     -69.93410000
H      -40.71560000     -34.81370000     -70.33500000
H      -40.94810000     -33.64030000     -69.11150000
S      -45.41230000     -29.72670000     -71.21950000
S      -42.84970000     -35.12970000     -69.07200000
C      -46.00110000     -30.98130000     -69.99270000
H      -45.32440000     -30.90400000     -69.12960000
H      -46.95820000     -30.52560000     -69.63670000
C      -44.00680000     -35.41790000     -70.50230000
H      -43.72050000     -36.28350000     -71.12180000
H      -44.04490000     -34.47240000     -71.09950000
C      -45.44840000     -35.71700000     -70.01090000
H      -45.36240000     -36.70740000     -69.59650000
H      -45.78110000     -35.02260000     -69.23720000
C      -45.90550000     -32.51010000     -70.37350000
H      -45.65330000     -33.05520000     -69.45920000
H      -45.06600000     -32.83780000     -71.02480000
C      -47.13200000     -33.03550000     -71.15450000
C      -48.01210000     -32.24860000     -71.79210000
C      -47.22280000     -34.46020000     -71.42640000
H      -48.05530000     -31.18430000     -71.69820000
C      -48.25370000     -34.71280000     -72.33180000
C      -46.55490000     -35.67100000     -71.02010000
C      -47.12640000     -36.80410000     -71.61360000
S      -49.17410000     -33.27430000     -72.75220000
S      -48.43870000     -36.38620000     -72.74520000
H      -46.76850000     -37.80970000     -71.56620000
