40
Properties=species:S:1:pos:R:3 #=T CELL(abcABC):=T 1.889726e+02=T 90.00000=T Traj:=T positionsangstrom=T Step:=T 0=T Bead:=T pbc="F F F"
C      -41.87770000     -33.47130000     -72.58030000
C      -42.03510000     -33.40090000     -71.14570000
C      -42.72430000     -32.29070000     -70.60010000
C      -43.10100000     -31.24290000     -71.41930000
C      -43.10430000     -31.32770000     -72.79060000
C      -42.40320000     -32.44210000     -73.33120000
H      -41.35640000     -34.22640000     -73.06580000
H      -42.79350000     -32.13010000     -69.57120000
H      -43.49340000     -30.53730000     -73.41810000
H      -42.28560000     -32.35460000     -74.40850000
C      -43.68780000     -30.07530000     -70.71130000
H      -43.27090000     -29.18280000     -70.96800000
H      -43.69670000     -30.15880000     -69.59300000
C      -41.42540000     -34.50430000     -70.28170000
H      -41.02610000     -35.28400000     -70.96540000
H      -40.60370000     -34.07240000     -69.70630000
S      -45.53600000     -29.86730000     -71.04860000
S      -42.68060000     -35.16900000     -69.16120000
C      -46.36720000     -30.68050000     -69.65930000
H      -45.75750000     -30.60330000     -68.80550000
H      -47.31630000     -30.12440000     -69.53440000
C      -44.18260000     -35.62970000     -70.25590000
H      -43.96890000     -36.68570000     -70.58190000
H      -44.07470000     -35.06190000     -71.21010000
C      -45.61830000     -35.54230000     -69.67620000
H      -45.90440000     -36.49410000     -69.07200000
H      -45.72080000     -34.66530000     -68.97670000
C      -46.52640000     -32.25230000     -69.85800000
H      -47.04790000     -32.51410000     -68.93890000
H      -45.42180000     -32.58950000     -69.66760000
C      -47.13530000     -32.80880000     -71.12740000
C      -47.98950000     -32.12160000     -71.94770000
C      -47.22480000     -34.26250000     -71.32980000
H      -48.25020000     -31.11450000     -71.86520000
C      -48.07000000     -34.60890000     -72.37780000
C      -46.59670000     -35.50700000     -70.84120000
C      -46.85070000     -36.61350000     -71.57260000
S      -48.79280000     -33.18170000     -73.09230000
S      -47.96940000     -36.26230000     -72.96880000
H      -46.81200000     -37.60820000     -71.17680000
