40
Properties=species:S:1:pos:R:3 #=T CELL(abcABC):=T 1.889726e+02=T 90.00000=T Traj:=T positionsangstrom=T Step:=T 0=T Bead:=T pbc="F F F"
C      -42.07170000     -33.55480000     -72.51560000
C      -42.05790000     -33.46500000     -71.10790000
C      -42.45720000     -32.19650000     -70.56150000
C      -42.95520000     -31.18420000     -71.37190000
C      -42.87110000     -31.28570000     -72.83990000
C      -42.32420000     -32.42280000     -73.38450000
H      -41.75450000     -34.48230000     -73.03480000
H      -42.55860000     -32.06620000     -69.45540000
H      -43.28550000     -30.50010000     -73.49670000
H      -42.29180000     -32.59880000     -74.48010000
C      -43.64330000     -29.95860000     -70.87270000
H      -43.40350000     -29.05560000     -71.47530000
H      -43.47390000     -29.66380000     -69.81150000
C      -41.58120000     -34.60520000     -70.25330000
H      -41.23820000     -35.38700000     -70.90180000
H      -40.69710000     -34.20230000     -69.66810000
S      -45.54470000     -30.01420000     -71.30360000
S      -42.93280000     -35.16830000     -69.08840000
C      -46.40010000     -30.78170000     -69.82920000
H      -45.92500000     -30.41650000     -68.84930000
H      -47.45940000     -30.48990000     -69.70090000
C      -44.27530000     -35.02700000     -70.30120000
H      -44.00960000     -35.63100000     -71.14330000
H      -44.40390000     -34.00250000     -70.62330000
C      -45.58530000     -35.55700000     -69.70730000
H      -45.39140000     -36.56940000     -69.45630000
H      -45.86230000     -35.00030000     -68.86340000
C      -46.34190000     -32.30160000     -69.86010000
H      -46.71480000     -32.66890000     -68.84080000
H      -45.39780000     -32.72730000     -69.94610000
C      -47.21790000     -32.90310000     -70.96270000
C      -48.03110000     -32.20640000     -71.79840000
C      -47.20610000     -34.32420000     -71.29990000
H      -48.24270000     -31.15800000     -71.73600000
C      -47.90700000     -34.58510000     -72.45980000
C      -46.64620000     -35.54070000     -70.74230000
C      -46.94970000     -36.60790000     -71.48310000
S      -48.69240000     -33.17210000     -73.06180000
S      -47.96400000     -36.26700000     -72.82850000
H      -46.49740000     -37.57030000     -71.52340000
