40
Properties=species:S:1:pos:R:3 #=T CELL(abcABC):=T 1.889726e+02=T 90.00000=T Traj:=T positionsangstrom=T Step:=T 0=T Bead:=T pbc="F F F"
C      -49.02620000     -32.09490000     -71.16750000
C      -48.24070000     -31.93140000     -69.98220000
C      -47.25240000     -30.99970000     -69.96480000
C      -46.95760000     -30.25330000     -71.12410000
C      -47.74340000     -30.37010000     -72.23480000
C      -48.77880000     -31.30040000     -72.27630000
H      -49.76510000     -32.95200000     -71.21740000
H      -46.66460000     -30.82540000     -69.04810000
H      -47.53760000     -29.82570000     -73.15070000
H      -49.32360000     -31.38830000     -73.18060000
C      -45.72190000     -29.35560000     -71.10390000
H      -45.14090000     -29.42580000     -70.20600000
H      -45.98220000     -28.38910000     -71.45910000
C      -48.56770000     -32.79230000     -68.83000000
H      -48.21040000     -32.52020000     -67.86740000
H      -49.65630000     -32.78060000     -68.65600000
S      -44.67520000     -29.85350000     -72.57640000
S      -48.26450000     -34.62470000     -69.07980000
C      -44.65720000     -31.65060000     -72.52950000
H      -45.72020000     -32.01040000     -72.41780000
H      -44.27390000     -32.03170000     -73.48660000
C      -46.58840000     -35.14690000     -69.45070000
H      -46.74840000     -36.24390000     -69.61620000
H      -45.85200000     -34.98410000     -68.68170000
C      -46.00070000     -34.57570000     -70.71620000
H      -46.86330000     -34.74820000     -71.47160000
H      -45.88670000     -33.48660000     -70.57790000
C      -43.71490000     -32.24630000     -71.38350000
H      -44.30060000     -32.20250000     -70.49190000
H      -42.90140000     -31.48700000     -71.20910000
C      -42.95790000     -33.53160000     -71.72110000
C      -41.66240000     -33.57200000     -72.19570000
C      -43.56700000     -34.84320000     -71.59500000
H      -40.92190000     -32.71670000     -72.14560000
C      -42.72470000     -35.82150000     -72.13820000
C      -44.86960000     -35.36860000     -71.19440000
C      -44.94070000     -36.70730000     -71.46620000
S      -41.11950000     -35.15340000     -72.52260000
S      -43.50250000     -37.49430000     -72.10990000
H      -45.82430000     -37.35350000     -71.22720000
