40
Properties=species:S:1:pos:R:3 #=T CELL(abcABC):=T 1.889726e+02=T 90.00000=T Traj:=T positionsangstrom=T Step:=T 0=T Bead:=T pbc="F F F"
C      -42.82750000     -36.30400000     -73.18410000
C      -44.04800000     -36.38920000     -72.42070000
C      -44.04180000     -36.02380000     -71.07090000
C      -42.83040000     -35.53420000     -70.44710000
C      -41.67210000     -35.53010000     -71.23010000
C      -41.64340000     -35.95870000     -72.57190000
H      -42.79700000     -36.62610000     -74.23410000
H      -44.92800000     -36.17420000     -70.45730000
H      -40.74500000     -35.27850000     -70.83300000
H      -40.69090000     -36.09020000     -73.08280000
C      -42.78810000     -35.23270000     -68.94590000
H      -42.04160000     -35.94630000     -68.49250000
H      -43.82310000     -35.48050000     -68.63610000
C      -45.30710000     -37.02930000     -73.03040000
H      -45.03020000     -37.74880000     -73.82720000
H      -45.98190000     -37.46270000     -72.28240000
S      -42.27300000     -33.54670000     -68.48800000
S      -46.35120000     -35.77170000     -73.97650000
C      -43.47060000     -32.32980000     -69.03290000
H      -44.24780000     -32.11560000     -68.24480000
H      -42.81430000     -31.44190000     -69.08200000
C      -47.51800000     -35.13320000     -72.77750000
H      -48.08490000     -35.86340000     -72.17400000
H      -48.26890000     -34.58010000     -73.45430000
C      -46.87890000     -34.17290000     -71.78100000
H      -46.97560000     -34.46420000     -70.75180000
H      -45.87470000     -34.27270000     -71.92030000
C      -44.36400000     -32.53270000     -70.34170000
H      -44.71270000     -33.55040000     -70.11140000
H      -43.86210000     -32.62700000     -71.30310000
C      -45.47490000     -31.46850000     -70.41910000
C      -45.35490000     -30.14690000     -70.06950000
C      -46.67190000     -31.62500000     -71.16970000
H      -44.55450000     -29.76700000     -69.44510000
C      -47.39040000     -30.46440000     -71.31160000
C      -47.39510000     -32.76620000     -71.87330000
C      -48.59910000     -32.29650000     -72.39280000
S      -46.72620000     -29.11980000     -70.38610000
S      -48.93750000     -30.64310000     -72.14840000
H      -49.19110000     -32.82600000     -73.10230000
