40
Properties=species:S:1:pos:R:3 #=T CELL(abcABC):=T 1.889726e+02=T 90.00000=T Traj:=T positionsangstrom=T Step:=T 0=T Bead:=T pbc="F F F"
C      -42.15740000     -33.35960000     -72.35400000
C      -41.97890000     -33.15170000     -70.97910000
C      -42.45440000     -32.02490000     -70.33480000
C      -43.24330000     -31.06620000     -71.02360000
C      -43.49120000     -31.29350000     -72.40140000
C      -42.93920000     -32.44570000     -73.09510000
H      -41.67270000     -34.20400000     -72.87620000
H      -42.31500000     -31.93980000     -69.25040000
H      -44.22490000     -30.60670000     -72.84810000
H      -43.01200000     -32.58610000     -74.17160000
C      -43.84380000     -29.86650000     -70.42600000
H      -43.41930000     -28.89530000     -70.87100000
H      -43.81480000     -29.64560000     -69.36400000
C      -41.33900000     -34.30560000     -70.23140000
H      -40.79730000     -35.01960000     -70.93010000
H      -40.60150000     -33.90450000     -69.55520000
S      -45.75010000     -29.67630000     -70.79660000
S      -42.60750000     -35.29840000     -69.28510000
C      -46.41400000     -31.02480000     -69.68650000
H      -45.88490000     -30.85500000     -68.70980000
H      -47.46620000     -30.85470000     -69.67140000
C      -44.03920000     -35.33680000     -70.59880000
H      -43.61010000     -36.03930000     -71.37660000
H      -44.14470000     -34.33720000     -71.15070000
C      -45.38800000     -35.81890000     -70.02660000
H      -45.44270000     -36.82000000     -69.65320000
H      -45.51900000     -35.11030000     -69.19970000
C      -46.13870000     -32.41830000     -70.18830000
H      -46.36990000     -33.09560000     -69.37390000
H      -45.09090000     -32.57190000     -70.33180000
C      -46.94830000     -32.95540000     -71.27410000
C      -47.65970000     -32.19360000     -72.17420000
C      -47.04320000     -34.37320000     -71.53280000
H      -47.65380000     -31.13200000     -72.35170000
C      -47.89240000     -34.61340000     -72.64220000
C      -46.48890000     -35.63280000     -71.05500000
C      -47.13160000     -36.73760000     -71.54650000
S      -48.49130000     -33.19770000     -73.30200000
S      -48.27800000     -36.36950000     -72.81860000
H      -46.97010000     -37.78770000     -71.25780000
