40
Properties=species:S:1:pos:R:3 #=T CELL(abcABC):=T 1.889726e+02=T 90.00000=T Traj:=T positionsangstrom=T Step:=T 0=T Bead:=T pbc="F F F"
C      -42.27800000     -33.38820000     -72.37060000
C      -42.10380000     -33.08290000     -70.98970000
C      -42.55940000     -31.93060000     -70.44090000
C      -43.20880000     -30.95930000     -71.23270000
C      -43.47670000     -31.24520000     -72.58710000
C      -42.96650000     -32.43400000     -73.16460000
H      -41.92210000     -34.40920000     -72.71480000
H      -42.40740000     -31.69600000     -69.40900000
H      -44.02730000     -30.45380000     -73.11560000
H      -43.07890000     -32.57490000     -74.22820000
C      -43.85740000     -29.79700000     -70.51570000
H      -43.37260000     -28.92050000     -70.79670000
H      -43.67860000     -30.03350000     -69.49180000
C      -41.41370000     -34.10480000     -70.06340000
H      -40.60580000     -34.63840000     -70.48550000
H      -40.99300000     -33.56180000     -69.19670000
S      -45.61140000     -29.68010000     -70.72320000
S      -42.74130000     -35.18650000     -69.30610000
C      -46.36380000     -31.12090000     -69.73400000
H      -46.09580000     -31.13170000     -68.66940000
H      -47.41680000     -30.89120000     -69.67930000
C      -43.99960000     -35.46070000     -70.58530000
H      -43.66800000     -36.36060000     -71.01840000
H      -44.06090000     -34.69720000     -71.34910000
C      -45.40770000     -35.68930000     -69.93600000
H      -45.37800000     -36.67150000     -69.45970000
H      -45.61770000     -34.85820000     -69.24940000
C      -46.04270000     -32.48860000     -70.16360000
H      -46.38540000     -33.12650000     -69.26360000
H      -44.97870000     -32.54650000     -70.28890000
C      -46.89310000     -32.98870000     -71.29150000
C      -47.51670000     -32.26250000     -72.26030000
C      -47.05670000     -34.42220000     -71.49670000
H      -47.44100000     -31.16500000     -72.46250000
C      -47.94250000     -34.66910000     -72.56770000
C      -46.55010000     -35.65900000     -70.98260000
C      -46.93030000     -36.82890000     -71.58990000
S      -48.59340000     -33.31120000     -73.20620000
S      -48.19820000     -36.38990000     -72.83710000
H      -46.61430000     -37.87850000     -71.40620000
