40
Properties=species:S:1:pos:R:3 #=T CELL(abcABC):=T 1.889726e+02=T 90.00000=T Traj:=T positionsangstrom=T Step:=T 0=T Bead:=T pbc="F F F"
C      -41.47010000     -33.48820000     -72.23970000
C      -41.72890000     -33.21540000     -70.89380000
C      -42.61290000     -32.10310000     -70.58740000
C      -43.00920000     -31.21260000     -71.58640000
C      -42.79010000     -31.58770000     -72.94910000
C      -41.96970000     -32.64200000     -73.20460000
H      -40.85580000     -34.30870000     -72.57670000
H      -42.91300000     -32.00320000     -69.49900000
H      -43.05900000     -30.94220000     -73.75870000
H      -41.75170000     -32.91400000     -74.20130000
C      -43.75570000     -29.90100000     -71.26450000
H      -43.29500000     -29.10670000     -71.97230000
H      -43.67180000     -29.66970000     -70.21770000
C      -41.31100000     -34.08860000     -69.79410000
H      -40.61840000     -34.93010000     -70.01530000
H      -40.83340000     -33.47810000     -68.99140000
S      -45.52200000     -30.14890000     -71.86520000
S      -42.73350000     -34.86630000     -68.87450000
C      -46.51430000     -30.59860000     -70.31340000
H      -45.85690000     -30.13160000     -69.51310000
H      -47.52280000     -30.06300000     -70.27980000
C      -43.97150000     -35.25470000     -70.26190000
H      -43.54920000     -36.11990000     -70.74370000
H      -43.88680000     -34.35050000     -70.95770000
C      -45.39060000     -35.34990000     -69.70580000
H      -45.48330000     -36.26330000     -69.11110000
H      -45.54740000     -34.55370000     -68.95040000
C      -46.50120000     -32.11320000     -70.09760000
H      -46.81510000     -32.31840000     -69.00310000
H      -45.45050000     -32.34060000     -70.04530000
C      -47.37010000     -32.88470000     -71.05330000
C      -48.39470000     -32.26810000     -71.79770000
C      -47.29390000     -34.34830000     -71.33030000
H      -48.69420000     -31.19660000     -71.73240000
C      -48.22060000     -34.76950000     -72.32350000
C      -46.42790000     -35.41450000     -70.81040000
C      -46.79550000     -36.66870000     -71.35670000
S      -49.27670000     -33.45930000     -72.83090000
S      -48.05530000     -36.43070000     -72.63960000
H      -46.22380000     -37.61080000     -71.12460000
