40
Properties=species:S:1:pos:R:3 #=T CELL(abcABC):=T 1.889726e+02=T 90.00000=T Traj:=T positionsangstrom=T Step:=T 0=T Bead:=T pbc="F F F"
C      -42.12600000     -33.41090000     -72.39810000
C      -42.08280000     -33.16450000     -71.02840000
C      -42.71440000     -31.96790000     -70.55150000
C      -43.25860000     -30.99920000     -71.42620000
C      -43.30360000     -31.25740000     -72.82300000
C      -42.73650000     -32.51070000     -73.28610000
H      -41.61350000     -34.21580000     -72.86490000
H      -42.63830000     -31.73940000     -69.48870000
H      -43.71370000     -30.55890000     -73.55440000
H      -42.80890000     -32.60070000     -74.37320000
C      -43.84100000     -29.77000000     -70.83650000
H      -43.54890000     -28.89370000     -71.40740000
H      -43.67140000     -29.48030000     -69.82930000
C      -41.48100000     -34.09960000     -70.01550000
H      -40.75990000     -34.66350000     -70.52460000
H      -40.94440000     -33.50000000     -69.31190000
S      -45.73740000     -29.78360000     -71.08480000
S      -42.76280000     -35.06940000     -69.12450000
C      -46.30730000     -30.89860000     -69.75220000
H      -45.68860000     -30.59240000     -68.92160000
H      -47.37300000     -30.71860000     -69.54600000
C      -43.97380000     -35.67020000     -70.35990000
H      -43.81390000     -36.70660000     -70.77400000
H      -43.84940000     -34.96560000     -71.18910000
C      -45.51410000     -35.74130000     -69.80560000
H      -45.60430000     -36.67620000     -69.26080000
H      -45.73520000     -34.95170000     -69.10630000
C      -46.08640000     -32.44600000     -70.02830000
H      -46.24890000     -33.17220000     -69.22620000
H      -45.02600000     -32.61050000     -70.40040000
C      -46.88250000     -33.00660000     -71.14240000
C      -47.66230000     -32.26300000     -71.91990000
C      -47.08140000     -34.46940000     -71.39220000
H      -47.72280000     -31.15200000     -71.98680000
C      -47.93530000     -34.68970000     -72.43380000
C      -46.48290000     -35.68470000     -70.94580000
C      -46.87010000     -36.77670000     -71.63640000
S      -48.74870000     -33.22530000     -72.98170000
S      -47.99770000     -36.40050000     -72.92540000
H      -46.43580000     -37.73340000     -71.38990000
