40
Properties=species:S:1:pos:R:3 #=T CELL(abcABC):=T 1.889726e+02=T 90.00000=T Traj:=T positionsangstrom=T Step:=T 0=T Bead:=T pbc="F F F"
C      -41.50970000     -33.25070000     -72.57530000
C      -41.76520000     -33.29070000     -71.16810000
C      -42.45150000     -32.28100000     -70.48500000
C      -42.86650000     -31.13250000     -71.22610000
C      -42.71340000     -31.08500000     -72.62060000
C      -42.05370000     -32.12520000     -73.24210000
H      -40.92310000     -33.98760000     -73.19400000
H      -42.74530000     -32.37390000     -69.42150000
H      -43.06720000     -30.22470000     -73.19930000
H      -42.02470000     -32.09080000     -74.35140000
C      -43.61850000     -30.02680000     -70.58460000
H      -43.02510000     -29.09450000     -70.59780000
H      -43.78140000     -30.35980000     -69.49500000
C      -41.33600000     -34.52350000     -70.39910000
H      -40.87320000     -35.25800000     -71.14950000
H      -40.54010000     -34.38170000     -69.63010000
S      -45.31900000     -29.73460000     -71.24620000
S      -42.75200000     -35.35140000     -69.44270000
C      -46.26730000     -30.72900000     -69.96740000
H      -45.86910000     -30.43720000     -68.99890000
H      -47.23660000     -30.27940000     -69.88910000
C      -44.04580000     -35.25470000     -70.74730000
H      -43.93110000     -36.04150000     -71.46800000
H      -43.99160000     -34.34830000     -71.40140000
C      -45.34310000     -35.43180000     -69.97480000
H      -45.15450000     -36.32140000     -69.38500000
H      -45.57190000     -34.61660000     -69.33890000
C      -46.24850000     -32.27500000     -70.21560000
H      -46.48660000     -32.82190000     -69.24320000
H      -45.26080000     -32.51830000     -70.48450000
C      -47.32880000     -32.90110000     -71.17220000
C      -48.29690000     -32.27250000     -71.84130000
C      -47.28050000     -34.33800000     -71.32140000
H      -48.48600000     -31.23090000     -71.74730000
C      -48.28890000     -34.68690000     -72.23260000
C      -46.45850000     -35.50610000     -71.01090000
C      -47.08540000     -36.64950000     -71.39340000
S      -49.34300000     -33.38710000     -72.73850000
S      -48.39620000     -36.43330000     -72.50750000
H      -46.76560000     -37.64420000     -71.21760000
