40
Properties=species:S:1:pos:R:3 #=T CELL(abcABC):=T 1.889726e+02=T 90.00000=T Traj:=T positionsangstrom=T Step:=T 0=T Bead:=T pbc="F F F"
C      -41.20250000     -33.04210000     -72.61870000
C      -41.71250000     -33.11690000     -71.30110000
C      -42.52020000     -32.07690000     -70.74650000
C      -42.93590000     -31.05170000     -71.57300000
C      -42.43160000     -30.92400000     -72.88420000
C      -41.57150000     -31.92540000     -73.33360000
H      -40.58160000     -33.74490000     -73.07730000
H      -42.86800000     -32.06500000     -69.73670000
H      -42.66630000     -30.03710000     -73.41590000
H      -41.15380000     -31.75720000     -74.31990000
C      -43.68020000     -29.89380000     -70.97500000
H      -43.25320000     -28.88750000     -71.25790000
H      -43.71010000     -30.00820000     -69.87690000
C      -41.40020000     -34.37410000     -70.53960000
H      -41.07040000     -35.24870000     -71.14480000
H      -40.54080000     -34.13530000     -69.87650000
S      -45.51190000     -29.90330000     -71.43060000
S      -42.77090000     -34.94770000     -69.46070000
C      -46.18590000     -30.92360000     -70.03780000
H      -45.55410000     -30.62900000     -69.20870000
H      -47.24750000     -30.70010000     -69.80020000
C      -44.13950000     -35.43870000     -70.64990000
H      -43.99600000     -36.41600000     -71.11040000
H      -44.29710000     -34.70290000     -71.37100000
C      -45.40920000     -35.65780000     -69.79010000
H      -45.24580000     -36.60010000     -69.36490000
H      -45.50020000     -34.89190000     -68.99380000
C      -46.10640000     -32.49300000     -70.22240000
H      -46.18880000     -32.87740000     -69.18530000
H      -45.10350000     -32.82040000     -70.69170000
C      -47.22990000     -33.02780000     -71.03780000
C      -48.10060000     -32.36190000     -71.81970000
C      -47.37350000     -34.48590000     -71.11040000
H      -48.20000000     -31.34310000     -72.09100000
C      -48.53020000     -34.80060000     -71.84930000
C      -46.65670000     -35.66010000     -70.69170000
C      -47.18940000     -36.79310000     -71.22010000
S      -49.22380000     -33.42800000     -72.71460000
S      -48.57240000     -36.49960000     -72.20400000
H      -46.94350000     -37.81000000     -71.00630000
