40
Properties=species:S:1:pos:R:3 #=T CELL(abcABC):=T 1.889726e+02=T 90.00000=T Traj:=T positionsangstrom=T Step:=T 0=T Bead:=T pbc="F F F"
C      -42.60240000     -33.14490000     -72.53570000
C      -42.24850000     -33.38970000     -71.22630000
C      -42.60410000     -32.49440000     -70.21750000
C      -43.16360000     -31.27420000     -70.52960000
C      -43.41660000     -30.97280000     -71.88550000
C      -43.12350000     -31.89380000     -72.86390000
H      -42.50430000     -33.81410000     -73.33060000
H      -42.36080000     -32.69770000     -69.15810000
H      -43.68300000     -29.94550000     -72.12580000
H      -43.29430000     -31.71590000     -73.87220000
C      -43.69780000     -30.35250000     -69.50210000
H      -43.27260000     -29.40420000     -69.62040000
H      -43.39900000     -30.60120000     -68.48990000
C      -41.56080000     -34.66010000     -70.83380000
H      -41.06380000     -35.17100000     -71.62300000
H      -40.85100000     -34.37420000     -69.99540000
S      -45.52710000     -30.14540000     -69.68190000
S      -42.71780000     -35.76270000     -70.04060000
C      -46.26840000     -31.54440000     -68.79040000
H      -45.75260000     -31.68110000     -67.78820000
H      -47.30240000     -31.24450000     -68.73020000
C      -43.97960000     -36.04290000     -71.40210000
H      -43.90060000     -37.02040000     -71.87220000
H      -43.92780000     -35.32970000     -72.21550000
C      -45.40450000     -35.99550000     -70.71020000
H      -45.63140000     -37.02680000     -70.43230000
H      -45.30740000     -35.32210000     -69.85540000
C      -46.14930000     -32.86680000     -69.59830000
H      -46.64160000     -33.58140000     -68.85670000
H      -45.09040000     -33.05890000     -69.73780000
C      -46.91470000     -32.95980000     -70.90850000
C      -47.84280000     -32.05250000     -71.35610000
C      -47.01010000     -34.18760000     -71.71040000
H      -47.98260000     -31.04250000     -70.96760000
C      -47.86530000     -34.07800000     -72.82140000
C      -46.39070000     -35.52190000     -71.68070000
C      -46.89700000     -36.30060000     -72.64810000
S      -48.68600000     -32.54760000     -72.88620000
S      -47.96750000     -35.51320000     -73.76970000
H      -46.78390000     -37.32930000     -72.84020000
