40
Properties=species:S:1:pos:R:3 #=T CELL(abcABC):=T 1.889726e+02=T 90.00000=T Traj:=T positionsangstrom=T Step:=T 0=T Bead:=T pbc="F F F"
C      -42.36080000     -33.06340000     -72.53990000
C      -42.18230000     -33.42120000     -71.15850000
C      -42.43960000     -32.37130000     -70.21610000
C      -43.23090000     -31.26570000     -70.59630000
C      -43.52230000     -31.04350000     -71.97620000
C      -42.99790000     -31.90990000     -72.96550000
H      -41.83350000     -33.66270000     -73.33010000
H      -42.22520000     -32.52370000     -69.14570000
H      -44.25240000     -30.20570000     -72.28110000
H      -43.12030000     -31.78690000     -74.04810000
C      -43.74910000     -30.26540000     -69.62470000
H      -43.20550000     -29.26080000     -69.77950000
H      -43.57660000     -30.69840000     -68.61800000
C      -41.49650000     -34.74320000     -70.76440000
H      -41.04610000     -35.24860000     -71.67540000
H      -40.64640000     -34.54920000     -70.19330000
S      -45.57650000     -29.97870000     -69.77660000
S      -42.65150000     -35.84590000     -69.80050000
C      -46.29320000     -31.50170000     -68.98280000
H      -45.87260000     -31.58100000     -68.00410000
H      -47.41770000     -31.25140000     -68.78200000
C      -44.01850000     -36.28530000     -71.08600000
H      -43.91990000     -37.40430000     -71.26980000
H      -43.64590000     -35.76750000     -71.95700000
C      -45.48310000     -36.04150000     -70.66690000
H      -45.84010000     -36.92990000     -70.20210000
H      -45.53890000     -35.32960000     -69.82980000
C      -46.12130000     -32.87340000     -69.64190000
H      -46.35800000     -33.71180000     -69.01880000
H      -45.08710000     -33.04930000     -69.84630000
C      -46.95750000     -33.04290000     -70.93910000
C      -47.76660000     -32.03420000     -71.40070000
C      -47.06590000     -34.23800000     -71.70860000
H      -47.82780000     -30.95380000     -71.05700000
C      -47.99120000     -34.11260000     -72.76280000
C      -46.46110000     -35.56120000     -71.68600000
C      -46.88890000     -36.28250000     -72.73990000
S      -48.61110000     -32.48470000     -72.92900000
S      -48.12470000     -35.51190000     -73.76690000
H      -46.59830000     -37.27140000     -73.01510000
