40
Properties=species:S:1:pos:R:3 #=T CELL(abcABC):=T 1.889726e+02=T 90.00000=T Traj:=T positionsangstrom=T Step:=T 0=T Bead:=T pbc="F F F"
C      -42.26310000     -33.25210000     -72.54720000
C      -42.20950000     -33.45340000     -71.16480000
C      -42.77980000     -32.51300000     -70.30770000
C      -43.24400000     -31.30490000     -70.79780000
C      -43.35090000     -31.09060000     -72.19370000
C      -42.79390000     -32.04970000     -73.01360000
H      -41.85190000     -34.07080000     -73.18280000
H      -42.60130000     -32.76790000     -69.30200000
H      -43.77920000     -30.14010000     -72.53900000
H      -42.72830000     -31.86720000     -74.16280000
C      -43.79610000     -30.33230000     -69.78160000
H      -43.40930000     -29.32170000     -69.87930000
H      -43.51290000     -30.70410000     -68.83610000
C      -41.53030000     -34.69000000     -70.60760000
H      -41.11940000     -35.29900000     -71.43110000
H      -40.80520000     -34.53730000     -69.84170000
S      -45.67140000     -29.92730000     -69.76980000
S      -42.86290000     -35.70740000     -69.75560000
C      -46.28680000     -31.51490000     -68.99160000
H      -45.92680000     -31.50510000     -68.00440000
H      -47.35750000     -31.37600000     -68.91360000
C      -43.97530000     -35.99980000     -71.15730000
H      -43.83500000     -36.91820000     -71.72750000
H      -43.84760000     -35.15100000     -71.85050000
C      -45.42490000     -36.02850000     -70.60910000
H      -45.67150000     -37.08140000     -70.30420000
H      -45.40050000     -35.51830000     -69.63760000
C      -46.04770000     -32.84530000     -69.73970000
H      -46.30450000     -33.60990000     -68.97090000
H      -44.95170000     -33.02220000     -69.84950000
C      -46.86520000     -32.94190000     -71.02020000
C      -47.64760000     -31.95740000     -71.58320000
C      -47.00470000     -34.19460000     -71.72890000
H      -47.77830000     -30.89800000     -71.16570000
C      -47.88570000     -34.10140000     -72.81090000
C      -46.43090000     -35.52870000     -71.56200000
C      -46.88350000     -36.36280000     -72.50970000
S      -48.64980000     -32.53190000     -72.86570000
S      -48.02350000     -35.61550000     -73.62160000
H      -46.60820000     -37.40370000     -72.75140000
