40
Properties=species:S:1:pos:R:3 #=T CELL(abcABC):=T 1.889726e+02=T 90.00000=T Traj:=T positionsangstrom=T Step:=T 0=T Bead:=T pbc="F F F"
C      -41.86940000     -33.40180000     -72.43100000
C      -41.84220000     -33.34020000     -71.01310000
C      -42.35870000     -32.22150000     -70.35170000
C      -42.93700000     -31.14690000     -71.11740000
C      -42.93620000     -31.18640000     -72.52240000
C      -42.38150000     -32.34270000     -73.17690000
H      -41.38070000     -34.21370000     -72.87000000
H      -42.35030000     -32.24920000     -69.23020000
H      -43.43890000     -30.48330000     -73.14520000
H      -42.22960000     -32.35420000     -74.22490000
C      -43.52870000     -29.98890000     -70.42070000
H      -42.96660000     -29.07540000     -70.70800000
H      -43.36100000     -30.06380000     -69.31340000
C      -41.29140000     -34.45060000     -70.26210000
H      -40.59200000     -35.04870000     -70.87000000
H      -40.81110000     -34.16350000     -69.26840000
S      -45.24640000     -29.57730000     -70.85700000
S      -42.61980000     -35.60270000     -69.54740000
C      -46.25150000     -30.74410000     -69.81820000
H      -45.83170000     -30.72480000     -68.77010000
H      -47.23330000     -30.27550000     -69.86290000
C      -44.00650000     -35.59430000     -70.82090000
H      -43.75300000     -36.43770000     -71.53430000
H      -43.93840000     -34.69390000     -71.41540000
C      -45.34670000     -35.64990000     -70.17410000
H      -45.40410000     -36.53130000     -69.60620000
H      -45.24950000     -34.95190000     -69.33150000
C      -46.27290000     -32.19790000     -70.21510000
H      -46.34020000     -32.81270000     -69.32230000
H      -45.25170000     -32.47140000     -70.59220000
C      -47.22020000     -32.86350000     -71.21750000
C      -48.27440000     -32.18810000     -71.85840000
C      -47.21740000     -34.26970000     -71.55410000
H      -48.35970000     -31.07520000     -71.90390000
C      -48.27440000     -34.57270000     -72.39500000
C      -46.55660000     -35.50380000     -71.07470000
C      -47.10510000     -36.61660000     -71.62900000
S      -49.24850000     -33.18520000     -72.84330000
S      -48.44470000     -36.30740000     -72.75970000
H      -46.72820000     -37.65890000     -71.43640000
