40
Properties=species:S:1:pos:R:3 #=T CELL(abcABC):=T 1.889726e+02=T 90.00000=T Traj:=T positionsangstrom=T Step:=T 0=T Bead:=T pbc="F F F"
C      -42.03870000     -33.25040000     -72.55270000
C      -42.02500000     -33.37820000     -71.12470000
C      -42.67320000     -32.36470000     -70.37570000
C      -43.30720000     -31.22000000     -70.95670000
C      -43.39100000     -31.20010000     -72.34440000
C      -42.80650000     -32.17340000     -73.15940000
H      -41.53560000     -34.06550000     -73.06480000
H      -42.62230000     -32.46260000     -69.31120000
H      -43.90450000     -30.44150000     -72.87870000
H      -42.91080000     -32.26110000     -74.25520000
C      -43.79070000     -30.11110000     -70.02050000
H      -43.54260000     -29.12990000     -70.43110000
H      -43.28940000     -30.11640000     -69.00090000
C      -41.44740000     -34.61370000     -70.46160000
H      -40.84140000     -35.14010000     -71.18970000
H      -40.81900000     -34.44990000     -69.50830000
S      -45.61940000     -29.97960000     -69.85170000
S      -42.75440000     -35.67690000     -69.70920000
C      -46.19770000     -31.49600000     -68.86130000
H      -45.35690000     -31.73470000     -68.05890000
H      -47.15920000     -31.25700000     -68.51360000
C      -44.16740000     -35.63560000     -70.98770000
H      -43.98360000     -36.31430000     -71.87310000
H      -44.24760000     -34.60910000     -71.38850000
C      -45.56220000     -35.99700000     -70.40180000
H      -45.66380000     -37.07520000     -70.36780000
H      -45.84670000     -35.50640000     -69.50780000
C      -46.21730000     -32.84530000     -69.58380000
H      -46.57040000     -33.55830000     -68.84080000
H      -45.18400000     -33.08480000     -69.91510000
C      -47.04070000     -33.07660000     -70.87410000
C      -47.67030000     -32.05440000     -71.52950000
C      -47.07180000     -34.31580000     -71.62230000
H      -47.72180000     -31.03340000     -71.11770000
C      -47.76220000     -34.13840000     -72.81110000
C      -46.58710000     -35.65060000     -71.48930000
C      -47.05790000     -36.46280000     -72.50260000
S      -48.48370000     -32.57560000     -73.01090000
S      -48.18810000     -35.66150000     -73.63220000
H      -46.74120000     -37.51190000     -72.61170000
