40
Properties=species:S:1:pos:R:3 #=T CELL(abcABC):=T 1.889726e+02=T 90.00000=T Traj:=T positionsangstrom=T Step:=T 0=T Bead:=T pbc="F F F"
C      -41.67580000     -32.77620000     -72.03030000
C      -41.82390000     -33.49790000     -70.81020000
C      -42.49910000     -32.92420000     -69.74230000
C      -42.90640000     -31.55280000     -69.77150000
C      -42.64750000     -30.81360000     -70.94820000
C      -42.01780000     -31.39020000     -72.04120000
H      -41.31890000     -33.26610000     -72.90540000
H      -42.90680000     -33.57580000     -68.92230000
H      -42.91850000     -29.79010000     -70.98970000
H      -41.86570000     -30.75590000     -72.97220000
C      -43.75630000     -30.91440000     -68.74710000
H      -43.52710000     -29.82590000     -68.58510000
H      -43.68200000     -31.43880000     -67.83220000
C      -41.48270000     -34.95750000     -70.71590000
H      -40.72850000     -35.19310000     -71.53740000
H      -41.03510000     -35.20700000     -69.74440000
S      -45.55090000     -30.68620000     -69.15260000
S      -42.92390000     -36.22630000     -70.81540000
C      -46.17410000     -32.40420000     -68.63620000
H      -45.46960000     -32.82430000     -67.91680000
H      -47.16020000     -32.31710000     -68.27570000
C      -44.10080000     -35.51570000     -72.03550000
H      -43.86870000     -35.72350000     -73.07920000
H      -44.04750000     -34.43450000     -71.84060000
C      -45.54660000     -36.04400000     -71.72710000
H      -45.51660000     -37.06220000     -72.09710000
H      -45.77760000     -36.02430000     -70.63420000
C      -46.17230000     -33.42850000     -69.77370000
H      -46.38440000     -34.37410000     -69.27760000
H      -45.20760000     -33.52470000     -70.30780000
C      -47.18960000     -33.19190000     -70.86210000
C      -48.06300000     -32.14970000     -70.98380000
C      -47.24250000     -34.02970000     -72.05450000
H      -47.98690000     -31.35960000     -70.23070000
C      -48.11850000     -33.58990000     -73.00140000
C      -46.58970000     -35.24500000     -72.50580000
C      -47.06310000     -35.67580000     -73.69980000
S      -48.98240000     -32.18170000     -72.46170000
S      -48.29850000     -34.64370000     -74.38250000
H      -46.73740000     -36.61470000     -74.07420000
