40
Properties=species:S:1:pos:R:3 #=T CELL(abcABC):=T 1.889726e+02=T 90.00000=T Traj:=T positionsangstrom=T Step:=T 0=T Bead:=T pbc="F F F"
C      -41.68010000     -32.83220000     -72.00670000
C      -41.93550000     -33.45170000     -70.76430000
C      -42.63880000     -32.82250000     -69.77860000
C      -43.07420000     -31.52570000     -70.03490000
C      -42.71530000     -30.82350000     -71.23230000
C      -42.03080000     -31.53110000     -72.25530000
H      -41.08780000     -33.39740000     -72.73130000
H      -42.73770000     -33.32680000     -68.81430000
H      -43.20300000     -29.83750000     -71.38380000
H      -41.95170000     -31.09870000     -73.23660000
C      -43.67540000     -30.74610000     -68.87000000
H      -43.37150000     -29.69430000     -68.94640000
H      -43.31260000     -31.23830000     -67.98310000
C      -41.47870000     -34.88880000     -70.65850000
H      -40.87900000     -35.19860000     -71.47570000
H      -40.95890000     -35.11870000     -69.68300000
S      -45.52920000     -30.67910000     -69.11800000
S      -42.98540000     -35.99170000     -70.55390000
C      -46.09740000     -32.41020000     -68.63200000
H      -45.49280000     -32.75750000     -67.76600000
H      -47.15160000     -32.29700000     -68.28200000
C      -44.01790000     -35.42570000     -71.99300000
H      -43.66680000     -35.76360000     -72.99360000
H      -44.06810000     -34.34780000     -72.05650000
C      -45.41040000     -36.06790000     -71.87990000
H      -45.27720000     -37.14010000     -72.23730000
H      -45.69530000     -36.20370000     -70.84670000
C      -46.05360000     -33.44410000     -69.79500000
H      -46.12670000     -34.45680000     -69.38480000
H      -44.98740000     -33.43020000     -70.18130000
C      -47.03730000     -33.24060000     -70.93630000
C      -47.81190000     -32.12500000     -71.03240000
C      -47.16780000     -34.08970000     -72.09200000
H      -47.92070000     -31.32180000     -70.25200000
C      -48.19950000     -33.71110000     -72.97450000
C      -46.54240000     -35.25380000     -72.60090000
C      -47.13170000     -35.78940000     -73.69830000
S      -48.93230000     -32.23000000     -72.40430000
S      -48.49560000     -34.81000000     -74.26720000
H      -46.72820000     -36.61520000     -74.19530000
