40
Properties=species:S:1:pos:R:3 #=T CELL(abcABC):=T 1.889726e+02=T 90.00000=T Traj:=T positionsangstrom=T Step:=T 0=T Bead:=T pbc="F F F"
C      -43.57050000     -34.86310000     -74.93290000
C      -43.85780000     -33.55490000     -74.47470000
C      -45.17110000     -33.11590000     -74.48640000
C      -46.18380000     -34.04430000     -74.61620000
C      -45.92800000     -35.42930000     -74.80770000
C      -44.59530000     -35.78220000     -75.08120000
H      -42.56250000     -35.05020000     -75.11600000
H      -45.52340000     -32.12450000     -74.12010000
H      -46.77640000     -36.17450000     -74.85750000
H      -44.30210000     -36.77640000     -75.30280000
C      -47.55490000     -33.51770000     -74.41210000
H      -48.35870000     -34.19590000     -74.84380000
H      -47.61360000     -32.58460000     -74.87300000
C      -42.69560000     -32.64610000     -74.14470000
H      -41.96940000     -32.67580000     -74.87780000
H      -43.07640000     -31.66060000     -74.08880000
S      -47.86200000     -33.19760000     -72.59270000
S      -41.72270000     -33.14030000     -72.56180000
C      -47.49030000     -34.88910000     -71.82760000
H      -48.36630000     -35.16530000     -71.34240000
H      -47.26020000     -35.59100000     -72.58580000
C      -43.12240000     -33.59280000     -71.41760000
H      -42.69380000     -33.83670000     -70.41530000
H      -43.58160000     -34.45870000     -71.82510000
C      -44.01740000     -32.37910000     -71.17430000
H      -43.33640000     -31.53430000     -71.41460000
H      -44.85090000     -32.42510000     -71.80510000
C      -46.34310000     -34.86280000     -70.84190000
H      -45.43200000     -34.73710000     -71.32650000
H      -46.29800000     -35.91850000     -70.64350000
C      -46.55700000     -33.97920000     -69.64410000
C      -47.53250000     -34.24400000     -68.71620000
C      -45.65610000     -32.92320000     -69.23730000
H      -48.18840000     -35.11010000     -68.79210000
C      -45.92080000     -32.65540000     -67.90020000
C      -44.50200000     -32.28560000     -69.75960000
C      -43.86890000     -31.51280000     -68.76680000
S      -47.33070000     -33.39780000     -67.21510000
S      -44.74510000     -31.45130000     -67.26050000
H      -43.05170000     -30.84900000     -68.97600000
