40
Properties=species:S:1:pos:R:3 #=T CELL(abcABC):=T 1.889726e+02=T 90.00000=T Traj:=T positionsangstrom=T Step:=T 0=T Bead:=T pbc="F F F"
C      -41.83450000     -32.82160000     -72.14620000
C      -41.92600000     -33.39270000     -70.83100000
C      -42.44970000     -32.63590000     -69.77310000
C      -43.00830000     -31.37720000     -70.10380000
C      -43.00110000     -30.85350000     -71.39000000
C      -42.34390000     -31.55120000     -72.46310000
H      -41.40620000     -33.42020000     -72.98980000
H      -42.63290000     -33.02590000     -68.80210000
H      -43.63460000     -30.03430000     -71.57580000
H      -42.39500000     -31.06890000     -73.46780000
C      -43.70720000     -30.48030000     -69.13170000
H      -43.48380000     -29.46720000     -69.49050000
H      -43.46620000     -30.60310000     -68.09120000
C      -41.52230000     -34.79650000     -70.56980000
H      -40.94790000     -35.25970000     -71.41330000
H      -41.05380000     -34.86990000     -69.63460000
S      -45.55800000     -30.60740000     -69.17020000
S      -43.03770000     -35.78270000     -70.42120000
C      -45.78520000     -32.37780000     -68.81950000
H      -44.94520000     -32.68330000     -68.23430000
H      -46.75360000     -32.50700000     -68.29320000
C      -44.12760000     -35.48260000     -71.84290000
H      -43.71150000     -35.98550000     -72.68870000
H      -44.26430000     -34.43260000     -72.14260000
C      -45.52010000     -36.12590000     -71.56280000
H      -45.54570000     -37.12900000     -71.87270000
H      -45.70710000     -36.13380000     -70.44320000
C      -45.77260000     -33.33480000     -70.05240000
H      -45.83410000     -34.33440000     -69.58080000
H      -44.82610000     -33.25280000     -70.60610000
C      -46.91200000     -33.12730000     -71.00270000
C      -47.75210000     -32.04010000     -71.18810000
C      -47.18710000     -34.13940000     -72.00440000
H      -47.89370000     -31.05530000     -70.76650000
C      -48.26170000     -33.89140000     -72.84710000
C      -46.50790000     -35.36310000     -72.34750000
C      -47.06820000     -36.08080000     -73.39110000
S      -48.88840000     -32.33980000     -72.50800000
S      -48.43680000     -35.12450000     -74.11450000
H      -46.93600000     -37.07300000     -73.71290000
