40
Properties=species:S:1:pos:R:3 #=T CELL(abcABC):=T 1.889726e+02=T 90.00000=T Traj:=T positionsangstrom=T Step:=T 0=T Bead:=T pbc="F F F"
C      -42.14660000     -32.87410000     -72.67590000
C      -42.04710000     -33.30610000     -71.34120000
C      -42.70420000     -32.66340000     -70.31830000
C      -43.39900000     -31.42660000     -70.57940000
C      -43.44030000     -31.00730000     -71.90330000
C      -42.85100000     -31.71750000     -72.94970000
H      -41.41980000     -33.33090000     -73.40270000
H      -42.72680000     -33.06940000     -69.32120000
H      -43.82260000     -30.07170000     -72.17740000
H      -43.00640000     -31.26660000     -73.94820000
C      -43.82580000     -30.58230000     -69.46650000
H      -43.36700000     -29.58790000     -69.48570000
H      -43.50660000     -31.03630000     -68.58680000
C      -41.36010000     -34.60960000     -70.94350000
H      -40.75660000     -35.01350000     -71.81680000
H      -40.65210000     -34.35120000     -70.23530000
S      -45.60550000     -30.30440000     -69.41920000
S      -42.61140000     -35.82530000     -70.28060000
C      -46.38920000     -31.84300000     -68.59880000
H      -45.97530000     -31.89210000     -67.62150000
H      -47.49560000     -31.62710000     -68.53690000
C      -44.12210000     -35.40530000     -71.35850000
H      -43.97300000     -35.66650000     -72.41800000
H      -44.28290000     -34.33180000     -71.39120000
C      -45.41260000     -36.15590000     -70.85730000
H      -45.29960000     -37.19650000     -71.04200000
H      -45.48690000     -36.01420000     -69.77110000
C      -46.23830000     -33.09540000     -69.42260000
H      -46.55150000     -33.96240000     -68.87850000
H      -45.20460000     -33.41320000     -69.61450000
C      -47.00910000     -33.08290000     -70.71700000
C      -47.77520000     -32.04920000     -71.23920000
C      -47.10340000     -34.25170000     -71.60760000
H      -47.76180000     -31.06090000     -70.84440000
C      -47.89560000     -34.01620000     -72.76640000
C      -46.52320000     -35.54950000     -71.73850000
C      -46.98720000     -36.27260000     -72.84120000
S      -48.59020000     -32.43340000     -72.79340000
S      -48.08680000     -35.34780000     -73.82450000
H      -46.52110000     -37.21390000     -73.10340000
