40
Properties=species:S:1:pos:R:3 #=T CELL(abcABC):=T 1.889726e+02=T 90.00000=T Traj:=T positionsangstrom=T Step:=T 0=T Bead:=T pbc="F F F"
C      -41.54890000     -32.70600000     -71.86850000
C      -42.03370000     -33.58560000     -70.87620000
C      -42.76160000     -33.03920000     -69.77070000
C      -43.00770000     -31.63690000     -69.73980000
C      -42.51960000     -30.81290000     -70.73180000
C      -41.97060000     -31.33800000     -71.89020000
H      -41.02500000     -33.13100000     -72.74990000
H      -42.98780000     -33.66710000     -68.91070000
H      -42.64380000     -29.75840000     -70.59760000
H      -41.65470000     -30.60740000     -72.60900000
C      -43.71580000     -31.07180000     -68.53940000
H      -43.26200000     -30.15440000     -68.16800000
H      -43.75410000     -31.72380000     -67.63160000
C      -41.53810000     -35.04110000     -70.88540000
H      -40.86540000     -35.20360000     -71.75160000
H      -40.93210000     -35.19880000     -70.07020000
S      -45.53830000     -30.79910000     -69.03470000
S      -42.90900000     -36.35330000     -70.87270000
C      -46.30620000     -32.39650000     -68.66760000
H      -45.85200000     -32.63860000     -67.66110000
H      -47.35470000     -32.24130000     -68.38160000
C      -44.15470000     -35.50400000     -72.07270000
H      -43.89700000     -35.61980000     -73.11600000
H      -43.94730000     -34.46700000     -71.88080000
C      -45.58630000     -36.03220000     -71.75920000
H      -45.54670000     -37.07700000     -72.10900000
H      -45.85360000     -36.01410000     -70.67660000
C      -46.27750000     -33.49760000     -69.67990000
H      -46.61130000     -34.48860000     -69.24570000
H      -45.25520000     -33.71120000     -69.94480000
C      -47.19250000     -33.22420000     -70.90010000
C      -48.08380000     -32.15130000     -70.97680000
C      -47.19800000     -33.97210000     -72.11290000
H      -48.15680000     -31.29660000     -70.36590000
C      -48.09260000     -33.50270000     -73.00480000
C      -46.56130000     -35.18720000     -72.58680000
C      -47.05660000     -35.59310000     -73.79030000
S      -48.95140000     -32.09090000     -72.49470000
S      -48.15140000     -34.41860000     -74.52830000
H      -46.69890000     -36.45090000     -74.37130000
