40
Properties=species:S:1:pos:R:3 #=T CELL(abcABC):=T 1.889726e+02=T 90.00000=T Traj:=T positionsangstrom=T Step:=T 0=T Bead:=T pbc="F F F"
C      -42.09040000     -32.73090000     -72.42950000
C      -42.11670000     -33.31530000     -71.12490000
C      -42.58250000     -32.54770000     -70.02970000
C      -43.02440000     -31.20960000     -70.23980000
C      -42.88400000     -30.63030000     -71.50810000
C      -42.52550000     -31.40720000     -72.63600000
H      -41.91870000     -33.30570000     -73.25430000
H      -42.70450000     -33.07830000     -69.01000000
H      -43.09470000     -29.53720000     -71.60710000
H      -42.55790000     -31.02430000     -73.64410000
C      -43.62990000     -30.51930000     -69.03250000
H      -43.21840000     -29.55590000     -68.78280000
H      -43.52130000     -31.10690000     -68.12310000
C      -41.58120000     -34.71030000     -71.07370000
H      -41.25680000     -35.00910000     -72.02540000
H      -40.74320000     -34.70030000     -70.36070000
S      -45.56210000     -30.27620000     -69.19750000
S      -42.87860000     -35.88010000     -70.36620000
C      -46.14320000     -32.04010000     -68.71590000
H      -45.60380000     -32.24060000     -67.77470000
H      -47.21310000     -31.96570000     -68.43010000
C      -44.16980000     -35.61220000     -71.66880000
H      -43.73740000     -36.06190000     -72.55160000
H      -44.25880000     -34.54570000     -71.82730000
C      -45.50000000     -36.20060000     -71.27000000
H      -45.56230000     -37.33250000     -71.33680000
H      -45.61670000     -35.94500000     -70.28010000
C      -45.98760000     -33.17910000     -69.79510000
H      -46.13300000     -34.14240000     -69.33670000
H      -44.89780000     -33.24090000     -70.12830000
C      -46.88900000     -33.15220000     -70.97100000
C      -47.66240000     -32.10660000     -71.32170000
C      -47.02990000     -34.24170000     -71.94260000
H      -47.85830000     -31.21290000     -70.73700000
C      -48.05640000     -34.02470000     -72.81440000
C      -46.52440000     -35.61010000     -72.09360000
C      -47.06170000     -36.28710000     -73.13120000
S      -48.79630000     -32.53090000     -72.62980000
S      -48.35490000     -35.32970000     -73.92760000
H      -46.81100000     -37.29500000     -73.60060000
