40
Properties=species:S:1:pos:R:3 #=T CELL(abcABC):=T 1.889726e+02=T 90.00000=T Traj:=T positionsangstrom=T Step:=T 0=T Bead:=T pbc="F F F"
C      -41.75310000     -32.85530000     -72.05620000
C      -41.89020000     -33.36810000     -70.79800000
C      -42.38400000     -32.57650000     -69.75450000
C      -42.95510000     -31.36750000     -70.07360000
C      -42.84610000     -30.80850000     -71.40490000
C      -42.19520000     -31.58590000     -72.39960000
H      -41.27390000     -33.48940000     -72.87980000
H      -42.29960000     -32.85470000     -68.75490000
H      -43.08600000     -29.74550000     -71.61790000
H      -41.90390000     -31.12460000     -73.34450000
C      -43.72180000     -30.65330000     -69.04920000
H      -43.42450000     -29.66720000     -68.86060000
H      -43.53700000     -31.06520000     -67.99850000
C      -41.46830000     -34.79770000     -70.55160000
H      -40.72970000     -35.12060000     -71.26910000
H      -40.94990000     -34.81200000     -69.51640000
S      -45.56770000     -30.66620000     -69.12390000
S      -42.95110000     -35.96940000     -70.37960000
C      -46.00130000     -32.41420000     -68.75320000
H      -45.47590000     -32.61140000     -67.85070000
H      -47.03780000     -32.28460000     -68.40120000
C      -44.09320000     -35.48860000     -71.86160000
H      -43.45860000     -35.66270000     -72.72070000
H      -44.24070000     -34.40230000     -71.73130000
C      -45.45810000     -36.17680000     -71.84510000
H      -45.41130000     -37.20610000     -72.25510000
H      -45.78640000     -36.31320000     -70.81650000
C      -45.89580000     -33.39810000     -69.93450000
H      -45.96020000     -34.48180000     -69.73700000
H      -44.94960000     -33.22960000     -70.42150000
C      -46.94340000     -33.20920000     -70.97700000
C      -47.80580000     -32.13520000     -71.08490000
C      -47.05640000     -34.10670000     -72.11070000
H      -47.94770000     -31.28790000     -70.36120000
C      -48.18430000     -33.75080000     -72.96350000
C      -46.55550000     -35.41550000     -72.52960000
C      -47.31600000     -35.92600000     -73.54730000
S      -48.92280000     -32.25830000     -72.45990000
S      -48.56870000     -34.90350000     -74.20820000
H      -47.07600000     -36.86670000     -73.89940000
