40
Properties=species:S:1:pos:R:3 #=T CELL(abcABC):=T 1.889726e+02=T 90.00000=T Traj:=T positionsangstrom=T Step:=T 0=T Bead:=T pbc="F F F"
C      -41.86490000     -32.85780000     -71.62800000
C      -42.21620000     -33.79640000     -70.67250000
C      -42.94020000     -33.35230000     -69.53990000
C      -43.15910000     -31.98440000     -69.35440000
C      -42.72930000     -31.02790000     -70.28700000
C      -42.18510000     -31.51450000     -71.51490000
H      -41.37080000     -33.18960000     -72.50880000
H      -43.27240000     -34.20760000     -68.91740000
H      -43.01250000     -29.94660000     -70.24160000
H      -41.95150000     -30.75150000     -72.29690000
C      -43.95700000     -31.55620000     -68.09820000
H      -43.55010000     -30.67440000     -67.64240000
H      -43.84100000     -32.33990000     -67.36080000
C      -41.83920000     -35.24120000     -70.79200000
H      -41.24240000     -35.42600000     -71.68260000
H      -41.31950000     -35.63820000     -69.93610000
S      -45.62080000     -31.20910000     -68.54330000
S      -43.26080000     -36.41220000     -70.83830000
C      -46.47560000     -32.83510000     -68.58750000
H      -46.19580000     -33.35390000     -67.64890000
H      -47.54110000     -32.59170000     -68.59180000
C      -44.40110000     -35.78030000     -72.29810000
H      -43.99060000     -36.15560000     -73.19150000
H      -44.30630000     -34.63410000     -72.27340000
C      -45.84790000     -36.15480000     -72.20060000
H      -46.10120000     -37.14250000     -72.68810000
H      -46.06800000     -36.27300000     -71.13620000
C      -46.33410000     -33.65450000     -69.84140000
H      -46.67510000     -34.69340000     -69.68380000
H      -45.28540000     -33.80160000     -70.12010000
C      -46.97230000     -33.12810000     -71.04530000
C      -47.58940000     -31.92580000     -71.15730000
C      -47.10890000     -33.84360000     -72.33080000
H      -47.72220000     -31.10820000     -70.41120000
C      -47.70910000     -33.04950000     -73.32150000
C      -46.65850000     -35.11200000     -72.86590000
C      -46.98510000     -35.23020000     -74.24060000
S      -48.21000000     -31.45340000     -72.71380000
S      -47.82360000     -33.78920000     -74.83300000
H      -46.75200000     -36.03220000     -74.89680000
