40
Properties=species:S:1:pos:R:3 #=T CELL(abcABC):=T 1.889726e+02=T 90.00000=T Traj:=T positionsangstrom=T Step:=T 0=T Bead:=T pbc="F F F"
C      -41.85040000     -32.96370000     -71.69940000
C      -42.19720000     -33.90810000     -70.68670000
C      -42.79960000     -33.47300000     -69.53560000
C      -43.23120000     -32.10240000     -69.35370000
C      -42.81520000     -31.20660000     -70.31260000
C      -42.10940000     -31.64760000     -71.44390000
H      -41.43520000     -33.34740000     -72.68480000
H      -43.14390000     -34.21890000     -68.80650000
H      -42.99940000     -30.14890000     -70.25810000
H      -41.82070000     -30.88670000     -72.17390000
C      -43.94140000     -31.71670000     -68.15220000
H      -43.52550000     -30.82060000     -67.62610000
H      -43.99880000     -32.52640000     -67.39400000
C      -41.96920000     -35.38740000     -70.99870000
H      -41.52170000     -35.36540000     -71.99420000
H      -41.20140000     -35.73590000     -70.28210000
S      -45.74420000     -31.12620000     -68.37580000
S      -43.43510000     -36.46980000     -70.83480000
C      -46.58260000     -32.84410000     -68.45280000
H      -46.23040000     -33.42260000     -67.63630000
H      -47.65330000     -32.57420000     -68.27930000
C      -44.34590000     -35.90390000     -72.30980000
H      -43.92160000     -36.41650000     -73.12490000
H      -44.04370000     -34.82850000     -72.49940000
C      -45.87240000     -36.03590000     -72.14830000
H      -46.11850000     -37.03800000     -72.46340000
H      -46.15190000     -36.01860000     -71.10650000
C      -46.52010000     -33.63180000     -69.70500000
H      -47.17980000     -34.49020000     -69.50640000
H      -45.47180000     -33.98260000     -69.84490000
C      -46.99660000     -33.02410000     -71.04570000
C      -47.60980000     -31.81500000     -71.11290000
C      -47.02840000     -33.67660000     -72.37690000
H      -47.88430000     -31.08110000     -70.28180000
C      -47.60520000     -32.95760000     -73.36400000
C      -46.62570000     -34.95620000     -72.89500000
C      -46.89950000     -35.16090000     -74.25330000
S      -48.09170000     -31.37810000     -72.79610000
S      -47.61300000     -33.72190000     -74.90890000
H      -46.57240000     -36.02410000     -74.84020000
