40
Properties=species:S:1:pos:R:3 #=T CELL(abcABC):=T 1.889726e+02=T 90.00000=T Traj:=T positionsangstrom=T Step:=T 0=T Bead:=T pbc="F F F"
C      -43.55310000     -34.98510000     -74.74900000
C      -43.78280000     -33.64580000     -74.47710000
C      -45.06600000     -33.07920000     -74.47860000
C      -46.14120000     -33.89280000     -74.83050000
C      -45.90480000     -35.19010000     -75.33360000
C      -44.58400000     -35.78680000     -75.15600000
H      -42.53470000     -35.36600000     -74.75400000
H      -45.13790000     -32.02150000     -74.23290000
H      -46.71320000     -35.86510000     -75.73080000
H      -44.43750000     -36.78710000     -75.49020000
C      -47.56790000     -33.50590000     -74.53280000
H      -48.14650000     -34.31940000     -74.95960000
H      -47.88480000     -32.50080000     -74.97340000
C      -42.62030000     -32.71040000     -74.12950000
H      -41.82230000     -32.69380000     -74.93050000
H      -43.12390000     -31.65220000     -74.08420000
S      -47.92680000     -33.34900000     -72.68140000
S      -41.68680000     -33.13970000     -72.64190000
C      -47.39600000     -34.89220000     -71.87760000
H      -48.30020000     -35.41290000     -71.40700000
H      -46.98240000     -35.61810000     -72.69290000
C      -42.89440000     -33.31400000     -71.25560000
H      -42.28410000     -33.41500000     -70.31200000
H      -43.31960000     -34.33990000     -71.27140000
C      -44.02170000     -32.28210000     -71.14550000
H      -43.70930000     -31.25850000     -71.38990000
H      -44.87210000     -32.51270000     -71.82120000
C      -46.30680000     -34.95130000     -70.78430000
H      -45.32220000     -34.60950000     -71.15070000
H      -46.25000000     -36.02510000     -70.46030000
C      -46.44650000     -34.17970000     -69.46060000
C      -47.42510000     -34.47350000     -68.53050000
C      -45.59920000     -33.05670000     -69.08400000
H      -48.12570000     -35.28270000     -68.69270000
C      -45.95940000     -32.63170000     -67.76440000
C      -44.60480000     -32.26890000     -69.73880000
C      -44.16900000     -31.29550000     -68.81330000
S      -47.26750000     -33.47580000     -67.07410000
S      -45.00430000     -31.29000000     -67.26420000
H      -43.37040000     -30.65910000     -69.04290000
