40
Properties=species:S:1:pos:R:3 #=T CELL(abcABC):=T 1.889726e+02=T 90.00000=T Traj:=T positionsangstrom=T Step:=T 0=T Bead:=T pbc="F F F"
C      -46.70190000     -36.31730000     -73.82210000
C      -46.09800000     -36.67030000     -72.60110000
C      -44.73350000     -36.49420000     -72.48650000
C      -44.03240000     -35.82690000     -73.51850000
C      -44.58400000     -35.50630000     -74.74540000
C      -45.97790000     -35.79170000     -74.89060000
H      -47.77090000     -36.36780000     -73.89180000
H      -44.31340000     -36.71730000     -71.55360000
H      -44.07200000     -35.10980000     -75.58010000
H      -46.48550000     -35.59900000     -75.76090000
C      -42.53100000     -35.57360000     -73.19600000
H      -41.77140000     -36.01450000     -73.91580000
H      -42.30160000     -35.86950000     -72.16390000
C      -46.94370000     -37.23280000     -71.41970000
H      -48.05850000     -37.00690000     -71.56770000
H      -46.88810000     -38.33180000     -71.52680000
S      -42.24210000     -33.72410000     -73.39860000
S      -46.28320000     -36.63060000     -69.81140000
C      -43.64200000     -32.86530000     -72.59420000
H      -44.14920000     -32.15470000     -73.33830000
H      -44.48040000     -33.57630000     -72.33780000
C      -46.74380000     -34.84260000     -69.99190000
H      -47.72710000     -34.63850000     -69.58170000
H      -46.88610000     -34.65520000     -71.07440000
C      -45.76460000     -33.90030000     -69.25510000
H      -45.90860000     -34.22250000     -68.25590000
H      -44.68780000     -34.21460000     -69.42330000
C      -43.28360000     -32.19290000     -71.24480000
H      -42.28390000     -31.81160000     -71.33020000
H      -43.05600000     -32.97390000     -70.48430000
C      -44.34640000     -31.16100000     -70.78650000
C      -44.20710000     -29.85180000     -71.17390000
C      -45.48490000     -31.36480000     -69.92380000
H      -43.21040000     -29.41260000     -71.62850000
C      -46.16520000     -30.13010000     -69.73000000
C      -46.23990000     -32.43470000     -69.33580000
C      -47.28170000     -31.97170000     -68.56970000
S      -45.44290000     -28.76330000     -70.60210000
S      -47.66200000     -30.30040000     -68.92350000
H      -47.84300000     -32.56570000     -67.88020000
