40
Properties=species:S:1:pos:R:3 #=T CELL(abcABC):=T 1.889726e+02=T 90.00000=T Traj:=T positionsangstrom=T Step:=T 0=T Bead:=T pbc="F F F"
C      -44.37420000     -36.32380000     -68.96230000
C      -45.65560000     -35.76700000     -68.73110000
C      -45.72180000     -34.49920000     -68.17170000
C      -44.57180000     -33.72760000     -67.96760000
C      -43.34080000     -34.31370000     -68.16010000
C      -43.25400000     -35.66990000     -68.48830000
H      -44.32560000     -37.37110000     -69.30490000
H      -46.68620000     -34.11430000     -67.97830000
H      -42.43070000     -33.80930000     -67.85680000
H      -42.29200000     -36.10150000     -68.58090000
C      -44.83890000     -32.24240000     -67.55160000
H      -43.97470000     -31.66130000     -67.20970000
H      -45.42720000     -32.37700000     -66.61230000
C      -46.85940000     -36.62030000     -69.03780000
H      -46.62960000     -37.58340000     -69.43740000
H      -47.51300000     -36.84450000     -68.18330000
S      -45.93750000     -31.25770000     -68.62130000
S      -47.78260000     -35.70100000     -70.41070000
C      -45.19540000     -31.03980000     -70.32430000
H      -46.08040000     -30.91470000     -70.94460000
H      -44.69040000     -30.10900000     -70.45370000
C      -46.62300000     -35.28780000     -71.76270000
H      -46.48450000     -36.11060000     -72.43650000
H      -45.67050000     -34.99390000     -71.28680000
C      -47.25240000     -34.01150000     -72.40580000
H      -48.19660000     -34.23730000     -72.95850000
H      -47.43380000     -33.22140000     -71.63920000
C      -44.45850000     -32.29510000     -70.82390000
H      -45.03520000     -33.14560000     -70.56640000
H      -43.46940000     -32.39430000     -70.29260000
C      -44.18510000     -32.10060000     -72.30810000
C      -43.13900000     -31.36320000     -72.78110000
C      -45.12500000     -32.60830000     -73.34080000
H      -42.39950000     -30.87680000     -72.18460000
C      -44.63410000     -32.13410000     -74.56590000
C      -46.33140000     -33.43280000     -73.51440000
C      -46.60420000     -33.66790000     -74.84090000
S      -43.27590000     -31.05940000     -74.43850000
S      -45.46980000     -32.88160000     -75.97750000
H      -47.51760000     -34.27920000     -75.08770000
