40
Properties=species:S:1:pos:R:3 #=T CELL(abcABC):=T 1.889726e+02=T 90.00000=T Traj:=T positionsangstrom=T Step:=T 0=T Bead:=T pbc="F F F"
C      -46.69160000     -36.33270000     -73.73250000
C      -46.05960000     -36.70370000     -72.51610000
C      -44.69540000     -36.35400000     -72.40080000
C      -43.99060000     -35.70720000     -73.38280000
C      -44.60040000     -35.37480000     -74.63290000
C      -45.95380000     -35.75470000     -74.81250000
H      -47.67030000     -36.59200000     -73.94320000
H      -44.21740000     -36.69150000     -71.52090000
H      -44.12150000     -34.96600000     -75.52720000
H      -46.43250000     -35.70360000     -75.77540000
C      -42.52830000     -35.37440000     -73.22300000
H      -41.96270000     -35.93070000     -74.03240000
H      -42.25190000     -35.73220000     -72.30150000
C      -46.85350000     -37.42240000     -71.46640000
H      -47.87640000     -37.39380000     -71.69130000
H      -46.60600000     -38.51000000     -71.39560000
S      -42.12090000     -33.58650000     -73.45770000
S      -46.51650000     -36.70230000     -69.81330000
C      -43.58100000     -32.64870000     -72.67620000
H      -43.78070000     -31.80410000     -73.31670000
H      -44.40200000     -33.28150000     -72.70020000
C      -46.91790000     -34.85940000     -69.86820000
H      -47.82380000     -34.67210000     -69.27170000
H      -47.11710000     -34.74880000     -70.93560000
C      -45.72710000     -33.93970000     -69.48540000
H      -45.40890000     -34.16100000     -68.46440000
H      -44.86680000     -33.98500000     -70.18770000
C      -43.26550000     -32.19270000     -71.29250000
H      -42.31310000     -31.65720000     -71.23890000
H      -43.14170000     -32.99720000     -70.56940000
C      -44.30890000     -31.16520000     -70.85230000
C      -44.15950000     -29.82800000     -71.14060000
C      -45.57100000     -31.40450000     -70.19870000
H      -43.32470000     -29.38480000     -71.84570000
C      -46.18520000     -30.19580000     -69.74080000
C      -46.24900000     -32.52290000     -69.52760000
C      -47.36060000     -32.16070000     -68.77420000
S      -45.45000000     -28.78820000     -70.46240000
S      -47.58720000     -30.41770000     -68.78800000
H      -47.91420000     -32.83160000     -68.17700000
