40
Properties=species:S:1:pos:R:3 #=T CELL(abcABC):=T 1.889726e+02=T 90.00000=T Traj:=T positionsangstrom=T Step:=T 0=T Bead:=T pbc="F F F"
C      -43.92310000     -36.39380000     -68.41290000
C      -45.22340000     -35.87280000     -68.63120000
C      -45.39720000     -34.40750000     -68.48870000
C      -44.24720000     -33.62460000     -68.18890000
C      -42.99710000     -34.20520000     -67.95540000
C      -42.86550000     -35.57740000     -67.93250000
H      -43.74890000     -37.43090000     -68.70050000
H      -46.36940000     -33.94290000     -68.58870000
H      -42.13220000     -33.56450000     -67.70840000
H      -41.95270000     -35.97670000     -67.64480000
C      -44.31860000     -32.07860000     -67.89010000
H      -43.44090000     -31.62490000     -68.37250000
H      -44.26110000     -31.95520000     -66.77490000
C      -46.44640000     -36.70150000     -68.99880000
H      -46.08870000     -37.69000000     -69.41660000
H      -47.00180000     -36.92050000     -68.10330000
S      -45.75830000     -30.98490000     -68.51260000
S      -47.57960000     -35.90460000     -70.22950000
C      -45.75160000     -30.88070000     -70.40920000
H      -46.71540000     -31.13050000     -70.66280000
H      -45.38160000     -29.87460000     -70.63590000
C      -46.49890000     -35.35520000     -71.60000000
H      -46.43670000     -36.21300000     -72.29590000
H      -45.47010000     -35.35110000     -71.27720000
C      -47.06760000     -34.13790000     -72.19530000
H      -48.16530000     -34.34480000     -72.48970000
H      -47.17840000     -33.36570000     -71.43070000
C      -44.75380000     -31.91200000     -70.89670000
H      -45.03450000     -32.91790000     -70.66940000
H      -43.76060000     -31.75720000     -70.37120000
C      -44.64960000     -31.84050000     -72.44800000
C      -43.79350000     -30.93370000     -73.01150000
C      -45.36840000     -32.55870000     -73.44720000
H      -43.19630000     -30.31480000     -72.52270000
C      -44.96550000     -32.28920000     -74.77330000
C      -46.45310000     -33.53340000     -73.43540000
C      -46.70650000     -34.02700000     -74.71660000
S      -43.70550000     -31.12220000     -74.83060000
S      -45.77220000     -33.21430000     -76.00000000
H      -47.58620000     -34.62970000     -75.03660000
