40
Properties=species:S:1:pos:R:3 #=T CELL(abcABC):=T 1.889726e+02=T 90.00000=T Traj:=T positionsangstrom=T Step:=T 0=T Bead:=T pbc="F F F"
C      -44.29710000     -36.35300000     -68.69440000
C      -45.59670000     -35.78230000     -68.61550000
C      -45.67370000     -34.41830000     -68.23630000
C      -44.52990000     -33.66800000     -67.95620000
C      -43.26260000     -34.22030000     -68.03420000
C      -43.15450000     -35.57610000     -68.37960000
H      -44.22780000     -37.35260000     -69.01140000
H      -46.67580000     -34.02060000     -68.18610000
H      -42.37560000     -33.57150000     -67.87350000
H      -42.23450000     -36.08020000     -68.34600000
C      -44.42400000     -32.15990000     -67.65000000
H      -43.58670000     -31.80670000     -68.22650000
H      -44.41420000     -31.93260000     -66.58370000
C      -46.81660000     -36.50620000     -68.99720000
H      -46.47050000     -37.49780000     -69.29010000
H      -47.47630000     -36.52380000     -68.14110000
S      -45.87800000     -31.25250000     -68.43470000
S      -47.87340000     -35.89620000     -70.39950000
C      -45.46730000     -31.12610000     -70.26590000
H      -46.47030000     -30.93950000     -70.59890000
H      -44.89860000     -30.16460000     -70.52450000
C      -46.52320000     -35.39390000     -71.64590000
H      -46.42750000     -36.16980000     -72.41020000
H      -45.54790000     -35.27270000     -71.13520000
C      -46.99610000     -34.08640000     -72.35770000
H      -47.97550000     -34.40980000     -72.67950000
H      -47.07780000     -33.30970000     -71.60460000
C      -44.61010000     -32.23770000     -70.93440000
H      -45.04780000     -33.20130000     -70.68590000
H      -43.66310000     -32.25990000     -70.35420000
C      -44.36120000     -31.93690000     -72.40510000
C      -43.45170000     -31.03500000     -72.85100000
C      -45.13590000     -32.62400000     -73.45950000
H      -42.62020000     -30.46840000     -72.32330000
C      -44.70980000     -32.12040000     -74.66270000
C      -46.17790000     -33.58280000     -73.56680000
C      -46.46140000     -33.86600000     -74.87650000
S      -43.35560000     -31.08010000     -74.62090000
S      -45.60720000     -32.84640000     -76.04550000
H      -47.30060000     -34.48940000     -75.15070000
