40
Properties=species:S:1:pos:R:3 #=T CELL(abcABC):=T 1.889726e+02=T 90.00000=T Traj:=T positionsangstrom=T Step:=T 0=T Bead:=T pbc="F F F"
C      -44.23850000     -36.36040000     -68.45160000
C      -45.48370000     -35.67640000     -68.54900000
C      -45.46750000     -34.23910000     -68.43170000
C      -44.26640000     -33.59420000     -68.09380000
C      -43.05980000     -34.28370000     -68.02820000
C      -43.06170000     -35.65580000     -68.14800000
H      -44.29550000     -37.47580000     -68.37490000
H      -46.37130000     -33.57600000     -68.50550000
H      -42.22450000     -33.67540000     -67.71650000
H      -42.03570000     -36.18400000     -68.01130000
C      -44.23930000     -32.11060000     -67.95530000
H      -43.31790000     -31.69140000     -68.45850000
H      -44.14310000     -31.83940000     -66.90170000
C      -46.62060000     -36.61230000     -68.93620000
H      -46.22680000     -37.59940000     -69.18610000
H      -47.34760000     -36.70270000     -68.07700000
S      -45.78770000     -31.20760000     -68.45040000
S      -47.70210000     -36.06170000     -70.31640000
C      -45.62410000     -31.01510000     -70.25720000
H      -46.62120000     -30.98160000     -70.78430000
H      -45.18990000     -30.05500000     -70.47140000
C      -46.48370000     -35.18430000     -71.52220000
H      -46.22010000     -35.91960000     -72.29840000
H      -45.61790000     -34.79510000     -70.96580000
C      -47.15690000     -34.03340000     -72.27710000
H      -48.08480000     -34.43900000     -72.60230000
H      -47.32730000     -33.22940000     -71.51410000
C      -44.65390000     -32.03660000     -70.95390000
H      -45.02210000     -33.04870000     -70.64490000
H      -43.71370000     -31.90560000     -70.54410000
C      -44.46020000     -31.88960000     -72.43310000
C      -43.61980000     -30.97500000     -73.02340000
C      -45.26180000     -32.53330000     -73.47090000
H      -42.95420000     -30.31300000     -72.42690000
C      -44.81710000     -32.25220000     -74.80520000
C      -46.36660000     -33.45550000     -73.43920000
C      -46.66500000     -33.90290000     -74.71850000
S      -43.54560000     -31.03420000     -74.75770000
S      -45.72950000     -33.14780000     -76.03100000
H      -47.39630000     -34.59660000     -75.02190000
