40
Properties=species:S:1:pos:R:3 #=T CELL(abcABC):=T 1.889726e+02=T 90.00000=T Traj:=T positionsangstrom=T Step:=T 0=T Bead:=T pbc="F F F"
C      -44.27320000     -36.45320000     -68.48790000
C      -45.48850000     -35.75490000     -68.63970000
C      -45.50710000     -34.36860000     -68.38040000
C      -44.35570000     -33.65970000     -68.04830000
C      -43.12980000     -34.31740000     -67.97110000
C      -43.08380000     -35.66170000     -68.31060000
H      -44.25710000     -37.49250000     -68.73610000
H      -46.40460000     -33.70920000     -68.50690000
H      -42.24340000     -33.66980000     -67.78610000
H      -42.11830000     -36.23570000     -68.42280000
C      -44.44220000     -32.12140000     -67.77580000
H      -43.49740000     -31.62120000     -68.05940000
H      -44.44730000     -31.93640000     -66.71160000
C      -46.83480000     -36.39920000     -68.81350000
H      -46.83160000     -37.48570000     -68.59970000
H      -47.59240000     -36.00150000     -68.10630000
S      -45.86560000     -31.26550000     -68.48700000
S      -47.64040000     -35.94030000     -70.48330000
C      -45.55850000     -30.98050000     -70.34570000
H      -46.48560000     -31.26040000     -70.89290000
H      -45.34510000     -29.95070000     -70.50870000
C      -46.45920000     -35.30600000     -71.69000000
H      -46.15520000     -36.11620000     -72.37070000
H      -45.53980000     -35.05730000     -71.19430000
C      -47.08090000     -34.10080000     -72.31490000
H      -48.13920000     -34.22790000     -72.64500000
H      -47.33090000     -33.31090000     -71.57150000
C      -44.60920000     -32.06650000     -70.87520000
H      -44.96530000     -33.12340000     -70.68970000
H      -43.60410000     -32.04070000     -70.41610000
C      -44.36010000     -31.94780000     -72.38170000
C      -43.51970000     -31.04360000     -72.92930000
C      -45.16650000     -32.62780000     -73.43240000
H      -42.82600000     -30.33890000     -72.33010000
C      -44.75530000     -32.22350000     -74.69190000
C      -46.33420000     -33.43930000     -73.48440000
C      -46.64360000     -33.83180000     -74.75120000
S      -43.54080000     -31.02750000     -74.67780000
S      -45.66310000     -33.03170000     -75.96670000
H      -47.40710000     -34.49130000     -75.09490000
