40
Properties=species:S:1:pos:R:3 #=T CELL(abcABC):=T 1.889726e+02=T 90.00000=T Traj:=T positionsangstrom=T Step:=T 0=T Bead:=T pbc="F F F"
C      -43.40630000     -34.84440000     -75.03180000
C      -43.76080000     -33.69400000     -74.27570000
C      -45.05430000     -33.37040000     -74.01330000
C      -46.08240000     -34.21110000     -74.44240000
C      -45.75760000     -35.46700000     -74.96240000
C      -44.41300000     -35.77010000     -75.31190000
H      -42.41650000     -35.04450000     -75.41090000
H      -45.43250000     -32.54240000     -73.40930000
H      -46.57180000     -36.13710000     -75.20020000
H      -44.26020000     -36.66490000     -75.89440000
C      -47.54600000     -33.72620000     -74.21530000
H      -48.24010000     -34.60710000     -74.38600000
H      -47.78870000     -32.91340000     -74.90320000
C      -42.64000000     -32.76870000     -73.85840000
H      -41.95720000     -32.57750000     -74.77640000
H      -43.01960000     -31.73530000     -73.72320000
S      -47.94390000     -33.21440000     -72.46070000
S      -41.64790000     -33.24000000     -72.42740000
C      -47.52690000     -34.82720000     -71.68660000
H      -48.19540000     -34.91940000     -70.82600000
H      -47.58020000     -35.56070000     -72.50890000
C      -42.89800000     -33.07580000     -71.04280000
H      -42.24380000     -32.87670000     -70.15610000
H      -43.25640000     -34.07660000     -70.77360000
C      -43.96990000     -31.96330000     -71.20550000
H      -43.53730000     -30.96150000     -71.31840000
H      -44.57040000     -32.12100000     -72.13420000
C      -46.10720000     -34.85700000     -71.13020000
H      -45.26980000     -34.48480000     -71.74470000
H      -45.73250000     -35.84470000     -71.02410000
C      -46.13770000     -34.28070000     -69.73000000
C      -46.82000000     -34.83670000     -68.72560000
C      -45.61310000     -32.95720000     -69.32210000
H      -47.45630000     -35.72990000     -68.84570000
C      -46.16990000     -32.54330000     -68.10090000
C      -44.74700000     -31.95460000     -69.90300000
C      -44.58740000     -30.92330000     -69.03810000
S      -47.06850000     -33.82490000     -67.33200000
S      -45.54440000     -31.05210000     -67.52730000
H      -44.24990000     -29.93470000     -69.36530000
