40
Properties=species:S:1:pos:R:3 #=T CELL(abcABC):=T 1.889726e+02=T 90.00000=T Traj:=T positionsangstrom=T Step:=T 0=T Bead:=T pbc="F F F"
C      -46.72700000     -36.48080000     -73.84970000
C      -46.04780000     -36.68360000     -72.62410000
C      -44.65050000     -36.35990000     -72.57730000
C      -44.00050000     -35.83230000     -73.68480000
C      -44.74590000     -35.76490000     -74.91780000
C      -46.08700000     -36.00850000     -74.96770000
H      -47.84240000     -36.64710000     -73.87990000
H      -44.19060000     -36.36300000     -71.57970000
H      -44.17930000     -35.35240000     -75.76830000
H      -46.62210000     -35.83120000     -75.96090000
C      -42.46490000     -35.56090000     -73.62220000
H      -42.09210000     -35.74030000     -74.57600000
H      -41.96370000     -36.23000000     -72.90210000
C      -46.81550000     -37.27700000     -71.45150000
H      -47.84020000     -37.32010000     -71.71500000
H      -46.61690000     -38.34300000     -71.34000000
S      -42.19650000     -33.74030000     -73.27330000
S      -46.40590000     -36.44200000     -69.79620000
C      -43.70600000     -33.18400000     -72.21910000
H      -44.24470000     -32.47300000     -72.88380000
H      -44.41410000     -33.98360000     -72.06810000
C      -46.43370000     -34.61590000     -70.19140000
H      -47.43640000     -34.34480000     -70.52530000
H      -45.77340000     -34.45870000     -71.03780000
C      -46.08830000     -33.78470000     -68.88870000
H      -46.76890000     -34.12780000     -68.10620000
H      -45.10110000     -34.00790000     -68.61800000
C      -43.30720000     -32.43930000     -70.88370000
H      -42.30480000     -32.00790000     -71.09470000
H      -43.27710000     -33.14730000     -70.05640000
C      -44.33600000     -31.33100000     -70.62590000
C      -44.09290000     -30.09180000     -71.21050000
C      -45.59050000     -31.37630000     -69.85540000
H      -43.39010000     -29.97870000     -72.06620000
C      -46.13580000     -30.09460000     -69.86670000
C      -46.34800000     -32.31290000     -69.05960000
C      -47.44970000     -31.75590000     -68.50570000
S      -45.33430000     -28.87380000     -70.78200000
S      -47.58260000     -30.01420000     -68.97080000
H      -48.19990000     -32.11760000     -67.74620000
