40
Properties=species:S:1:pos:R:3 #=T CELL(abcABC):=T 1.889726e+02=T 90.00000=T Traj:=T positionsangstrom=T Step:=T 0=T Bead:=T pbc="F F F"
C      -46.80590000     -36.65020000     -73.60780000
C      -46.13210000     -36.77910000     -72.39590000
C      -44.75450000     -36.54950000     -72.40160000
C      -44.08150000     -36.16230000     -73.55230000
C      -44.81660000     -35.93480000     -74.77720000
C      -46.18330000     -36.23780000     -74.78900000
H      -47.81590000     -37.01700000     -73.73090000
H      -44.25830000     -36.66170000     -71.41110000
H      -44.27380000     -35.78630000     -75.68260000
H      -46.78970000     -36.27540000     -75.65940000
C      -42.60750000     -35.73080000     -73.51110000
H      -42.09420000     -36.10190000     -74.36810000
H      -42.20230000     -36.13920000     -72.51770000
C      -46.84460000     -37.10220000     -71.14600000
H      -47.93480000     -36.98100000     -71.21720000
H      -46.77250000     -38.28930000     -71.00120000
S      -42.33350000     -33.85810000     -73.56030000
S      -46.17660000     -36.24690000     -69.69510000
C      -43.83550000     -33.06560000     -72.80460000
H      -43.84360000     -32.06950000     -73.29260000
H      -44.83430000     -33.56570000     -73.14610000
C      -46.89030000     -34.60720000     -70.01050000
H      -47.99690000     -34.68240000     -69.99750000
H      -46.57810000     -34.24240000     -71.00750000
C      -46.49740000     -33.54960000     -68.95970000
H      -47.08350000     -33.71570000     -68.08200000
H      -45.47110000     -33.67920000     -68.74420000
C      -43.92900000     -32.97900000     -71.30310000
H      -42.93040000     -33.09330000     -70.90180000
H      -44.61060000     -33.79350000     -70.90140000
C      -44.43350000     -31.57210000     -70.84490000
C      -43.83900000     -30.35750000     -71.13170000
C      -45.58890000     -31.32610000     -69.97490000
H      -43.18210000     -30.18100000     -71.90630000
C      -45.86060000     -29.98280000     -69.81820000
C      -46.61750000     -32.07190000     -69.33820000
C      -47.64610000     -31.29500000     -68.75190000
S      -44.60180000     -28.93490000     -70.46830000
S      -47.37750000     -29.61020000     -69.05630000
H      -48.50740000     -31.66210000     -68.30850000
