40
Properties=species:S:1:pos:R:3 #=T CELL(abcABC):=T 1.889726e+02=T 90.00000=T Traj:=T positionsangstrom=T Step:=T 0=T Bead:=T pbc="F F F"
C      -46.94640000     -36.82960000     -73.55570000
C      -46.32370000     -36.89930000     -72.30630000
C      -44.92810000     -36.52300000     -72.20400000
C      -44.22410000     -36.09500000     -73.39240000
C      -44.94300000     -36.00200000     -74.56970000
C      -46.25410000     -36.41580000     -74.72330000
H      -48.00610000     -37.05440000     -73.66380000
H      -44.36140000     -36.75120000     -71.22710000
H      -44.39420000     -35.65100000     -75.46040000
H      -46.71370000     -36.40510000     -75.71920000
C      -42.76160000     -35.66560000     -73.21230000
H      -42.16520000     -36.21350000     -73.94930000
H      -42.48410000     -35.91880000     -72.17030000
C      -47.06820000     -37.25740000     -71.06110000
H      -48.11610000     -37.34570000     -71.33930000
H      -46.78510000     -38.21830000     -70.67730000
S      -42.62700000     -33.80560000     -73.62830000
S      -46.96930000     -36.26640000     -69.55680000
C      -44.00430000     -33.15030000     -72.54710000
H      -44.29510000     -32.23650000     -73.11660000
H      -44.85800000     -33.79200000     -72.73790000
C      -46.89690000     -34.44040000     -70.22170000
H      -47.93920000     -34.05040000     -70.45010000
H      -46.19240000     -34.29460000     -71.04820000
C      -46.36300000     -33.52330000     -69.13800000
H      -46.95320000     -33.63830000     -68.22240000
H      -45.32740000     -33.81020000     -69.00060000
C      -43.55090000     -32.90350000     -71.10770000
H      -42.48780000     -32.96640000     -71.05980000
H      -43.96390000     -33.65660000     -70.41460000
C      -44.03160000     -31.52800000     -70.73190000
C      -43.47410000     -30.40710000     -71.25920000
C      -45.20740000     -31.28090000     -69.97110000
H      -42.63010000     -30.37200000     -72.01610000
C      -45.52610000     -29.90440000     -69.90460000
C      -46.36590000     -32.06340000     -69.49040000
C      -47.33020000     -31.25920000     -68.91490000
S      -44.34910000     -28.97850000     -70.83650000
S      -47.01960000     -29.52420000     -69.09990000
H      -48.24690000     -31.64560000     -68.35870000
