40
Properties=species:S:1:pos:R:3 #=T CELL(abcABC):=T 1.889726e+02=T 90.00000=T Traj:=T positionsangstrom=T Step:=T 0=T Bead:=T pbc="F F F"
C      -46.71250000     -36.74110000     -73.74970000
C      -46.01420000     -36.75530000     -72.57380000
C      -44.67090000     -36.38400000     -72.47250000
C      -44.02630000     -35.93360000     -73.65420000
C      -44.73830000     -35.93600000     -74.86800000
C      -46.08950000     -36.30910000     -74.92770000
H      -47.74860000     -36.92950000     -73.73200000
H      -44.16240000     -36.37080000     -71.50640000
H      -44.34860000     -35.31910000     -75.68630000
H      -46.66560000     -36.25870000     -75.83140000
C      -42.57800000     -35.52580000     -73.62860000
H      -42.11260000     -35.88150000     -74.55880000
H      -42.00450000     -36.04310000     -72.88110000
C      -46.69640000     -37.34100000     -71.28220000
H      -47.75530000     -37.35630000     -71.35940000
H      -46.33070000     -38.33110000     -71.01100000
S      -42.32750000     -33.76820000     -73.29330000
S      -46.23200000     -36.24410000     -69.78030000
C      -43.86660000     -33.06670000     -72.60550000
H      -43.88620000     -32.10040000     -73.04750000
H      -44.70650000     -33.68790000     -72.88340000
C      -46.86120000     -34.55150000     -70.07280000
H      -47.96140000     -34.45370000     -70.01650000
H      -46.53690000     -34.22080000     -71.05590000
C      -46.29890000     -33.65790000     -68.90640000
H      -46.79860000     -33.95370000     -67.95600000
H      -45.17880000     -33.81580000     -68.74020000
C      -43.84130000     -32.87180000     -71.08100000
H      -42.77990000     -32.90300000     -70.78940000
H      -44.26170000     -33.75750000     -70.58120000
C      -44.41020000     -31.52860000     -70.70340000
C      -43.85280000     -30.32760000     -71.13290000
C      -45.66330000     -31.32140000     -69.95710000
H      -42.99010000     -30.24090000     -71.67140000
C      -46.06980000     -29.98720000     -69.97840000
C      -46.51690000     -32.22330000     -69.20000000
C      -47.58560000     -31.51940000     -68.61930000
S      -44.83820000     -28.88300000     -70.65230000
S      -47.49750000     -29.75760000     -68.95920000
H      -48.41870000     -31.89350000     -68.06990000
