40
Properties=species:S:1:pos:R:3 #=T CELL(abcABC):=T 1.889726e+02=T 90.00000=T Traj:=T positionsangstrom=T Step:=T 0=T Bead:=T pbc="F F F"
C      -47.25340000     -36.47560000     -74.07680000
C      -46.70300000     -36.54560000     -72.79550000
C      -45.34090000     -36.25710000     -72.53190000
C      -44.54190000     -36.02080000     -73.60740000
C      -45.10920000     -36.13150000     -74.89620000
C      -46.47210000     -36.35630000     -75.18840000
H      -48.28020000     -36.67250000     -74.31460000
H      -44.92250000     -36.28360000     -71.49370000
H      -44.46060000     -35.91720000     -75.63740000
H      -46.86180000     -36.43210000     -76.20450000
C      -43.12630000     -35.53140000     -73.38610000
H      -42.43600000     -36.33010000     -73.78750000
H      -42.94220000     -35.51520000     -72.26940000
C      -47.63460000     -36.50650000     -71.66200000
H      -48.45220000     -35.71710000     -71.76860000
H      -48.28340000     -37.42620000     -71.58880000
S      -42.74100000     -33.89750000     -74.13950000
S      -47.05200000     -36.26570000     -69.93530000
C      -43.95710000     -32.74060000     -73.22870000
H      -43.75000000     -31.70320000     -73.51580000
H      -45.02750000     -32.98660000     -73.43330000
C      -46.84410000     -34.50700000     -69.67120000
H      -47.70210000     -34.15590000     -69.15100000
H      -46.86790000     -34.00730000     -70.67800000
C      -45.53390000     -33.95270000     -69.05210000
H      -45.44670000     -34.25600000     -67.99940000
H      -44.61180000     -34.30490000     -69.49500000
C      -43.68420000     -32.63890000     -71.66480000
H      -42.58660000     -32.82190000     -71.45000000
H      -44.20670000     -33.43710000     -71.16710000
C      -44.12450000     -31.39180000     -70.91250000
C      -43.89850000     -30.12520000     -71.43370000
C      -45.00100000     -31.39500000     -69.79720000
H      -43.37160000     -29.74110000     -72.30690000
C      -45.26660000     -30.07940000     -69.27520000
C      -45.66210000     -32.45450000     -68.99290000
C      -46.46500000     -31.88650000     -68.03240000
S      -44.56100000     -28.85740000     -70.25500000
S      -46.41430000     -30.10920000     -67.99150000
H      -46.98310000     -32.37710000     -67.25580000
