40
Properties=species:S:1:pos:R:3 #=T CELL(abcABC):=T 1.889726e+02=T 90.00000=T Traj:=T positionsangstrom=T Step:=T 0=T Bead:=T pbc="F F F"
C      -45.07710000     -35.80390000     -68.38600000
C      -46.30340000     -35.84660000     -68.99210000
C      -47.12420000     -34.71890000     -69.09070000
C      -46.81140000     -33.69430000     -68.20750000
C      -45.49400000     -33.55390000     -67.65420000
C      -44.69950000     -34.66340000     -67.71180000
H      -44.52070000     -36.71630000     -68.40490000
H      -47.82800000     -34.78380000     -69.78630000
H      -45.15800000     -32.63910000     -67.11760000
H      -43.71980000     -34.72050000     -67.32930000
C      -47.81140000     -32.52100000     -68.03640000
H      -47.39050000     -31.79250000     -67.31360000
H      -48.82080000     -32.77960000     -67.79590000
C      -46.59520000     -37.11370000     -69.78430000
H      -45.81270000     -37.91130000     -69.59850000
H      -47.58510000     -37.58820000     -69.59880000
S      -48.11710000     -31.44420000     -69.56100000
S      -46.70390000     -36.72900000     -71.58990000
C      -46.38200000     -31.23310000     -70.22340000
H      -46.16040000     -30.15520000     -70.48300000
H      -45.60900000     -31.39780000     -69.43470000
C      -45.24620000     -35.69580000     -71.97080000
H      -44.41530000     -36.44200000     -72.09990000
H      -45.18450000     -34.94960000     -71.13790000
C      -45.36980000     -34.83930000     -73.20510000
H      -45.53400000     -35.39650000     -74.10780000
H      -46.34070000     -34.34090000     -73.08140000
C      -46.13300000     -32.13860000     -71.41670000
H      -47.00630000     -32.25300000     -72.03760000
H      -46.03260000     -33.20840000     -71.12010000
C      -44.95750000     -31.64830000     -72.21380000
C      -44.68020000     -30.29250000     -72.43500000
C      -44.19030000     -32.46850000     -73.11400000
H      -45.18270000     -29.42670000     -71.98560000
C      -43.09270000     -31.85550000     -73.69180000
C      -44.31450000     -33.82150000     -73.53470000
C      -43.39920000     -34.19080000     -74.50370000
S      -43.07420000     -30.11690000     -73.31220000
S      -42.21310000     -32.93730000     -74.68740000
H      -43.21800000     -35.20030000     -74.88010000
