40
Properties=species:S:1:pos:R:3 #=T CELL(abcABC):=T 1.889726e+02=T 90.00000=T Traj:=T positionsangstrom=T Step:=T 0=T Bead:=T pbc="F F F"
C      -42.39240000     -34.94970000     -69.98860000
C      -43.35200000     -35.94990000     -70.18460000
C      -44.59130000     -35.79390000     -69.46430000
C      -44.77850000     -34.65910000     -68.64260000
C      -43.90950000     -33.58780000     -68.68510000
C      -42.62820000     -33.81560000     -69.23100000
H      -41.41790000     -35.14300000     -70.36830000
H      -45.30910000     -36.50660000     -69.52980000
H      -44.01890000     -32.70110000     -68.09050000
H      -41.89920000     -33.02740000     -69.21850000
C      -46.12300000     -34.53060000     -67.89860000
H      -45.85150000     -34.43050000     -66.86060000
H      -46.71850000     -35.43760000     -68.10870000
C      -43.06310000     -36.92130000     -71.29470000
H      -42.09230000     -36.73940000     -71.69620000
H      -43.13750000     -37.95390000     -70.95490000
S      -47.18420000     -33.11850000     -68.41210000
S      -44.19980000     -36.67470000     -72.70650000
C      -48.15910000     -33.77500000     -69.84430000
H      -48.64940000     -34.82340000     -69.66200000
H      -48.99870000     -33.16400000     -69.98880000
C      -44.10480000     -34.83480000     -72.94780000
H      -43.18240000     -34.69930000     -73.50470000
H      -44.24510000     -34.35480000     -71.99380000
C      -45.34990000     -34.42820000     -73.86030000
H      -45.29530000     -34.71450000     -74.90980000
H      -46.25950000     -34.82070000     -73.42960000
C      -47.38000000     -33.79260000     -71.17250000
H      -47.94360000     -34.14770000     -72.02820000
H      -46.41440000     -34.28460000     -71.10830000
C      -47.06820000     -32.39290000     -71.65830000
C      -47.44860000     -31.21360000     -71.07210000
C      -46.00920000     -32.06790000     -72.66050000
H      -48.12050000     -31.09610000     -70.26690000
C      -45.64220000     -30.78730000     -72.65620000
C      -45.40830000     -32.92120000     -73.72430000
C      -44.66650000     -32.13940000     -74.60860000
S      -46.66760000     -29.77950000     -71.64490000
S      -44.53010000     -30.45680000     -74.04430000
H      -44.08330000     -32.44070000     -75.50530000
