40
Properties=species:S:1:pos:R:3 #=T CELL(abcABC):=T 1.889726e+02=T 90.00000=T Traj:=T positionsangstrom=T Step:=T 0=T Bead:=T pbc="F F F"
C      -44.52620000     -35.58680000     -68.39990000
C      -45.86130000     -35.69550000     -68.88070000
C      -46.70920000     -34.56360000     -68.72420000
C      -46.34340000     -33.41850000     -68.08880000
C      -44.99280000     -33.35130000     -67.65760000
C      -44.09700000     -34.40170000     -67.75970000
H      -43.84450000     -36.46860000     -68.45210000
H      -47.65370000     -34.65740000     -69.12660000
H      -44.65770000     -32.53820000     -67.03670000
H      -43.03330000     -34.30640000     -67.39130000
C      -47.27820000     -32.21800000     -67.80640000
H      -46.82470000     -31.43560000     -67.07900000
H      -48.18230000     -32.64530000     -67.32380000
C      -46.43150000     -36.86900000     -69.57470000
H      -45.66580000     -37.64500000     -69.74990000
H      -47.30730000     -37.41750000     -69.12250000
S      -47.89130000     -31.41200000     -69.42400000
S      -47.20520000     -36.38880000     -71.22000000
C      -46.34730000     -30.95400000     -70.36190000
H      -46.44870000     -30.05720000     -71.03560000
H      -45.46050000     -30.65520000     -69.72310000
C      -45.91600000     -35.46430000     -72.17590000
H      -45.13450000     -36.18940000     -72.38260000
H      -45.42230000     -34.84050000     -71.47760000
C      -46.24140000     -34.61540000     -73.37820000
H      -46.82310000     -35.15660000     -74.15420000
H      -46.96450000     -33.92590000     -72.99790000
C      -45.91870000     -32.11500000     -71.21540000
H      -46.75530000     -32.55800000     -71.73000000
H      -45.61470000     -32.94760000     -70.58670000
C      -44.80170000     -31.78330000     -72.14480000
C      -43.87380000     -30.81490000     -72.02200000
C      -44.52490000     -32.60120000     -73.30570000
H      -43.98740000     -29.99820000     -71.28250000
C      -43.33790000     -32.21660000     -73.90260000
C      -45.01550000     -33.82760000     -73.85710000
C      -44.28530000     -34.24340000     -74.95300000
S      -42.63870000     -30.76480000     -73.25470000
S      -42.85660000     -33.26830000     -75.27350000
H      -44.41020000     -35.16570000     -75.53660000
