40
Properties=species:S:1:pos:R:3 #=T CELL(abcABC):=T 1.889726e+02=T 90.00000=T Traj:=T positionsangstrom=T Step:=T 0=T Bead:=T pbc="F F F"
C      -44.95280000     -35.69770000     -68.30540000
C      -46.15710000     -35.81710000     -69.11070000
C      -47.16520000     -34.83410000     -68.96370000
C      -46.95350000     -33.70940000     -68.14970000
C      -45.77290000     -33.59740000     -67.45060000
C      -44.75000000     -34.62270000     -67.47920000
H      -44.17990000     -36.43210000     -68.39330000
H      -48.01850000     -34.98120000     -69.51970000
H      -45.36240000     -32.77080000     -66.81680000
H      -43.84360000     -34.48590000     -66.88150000
C      -47.96320000     -32.60250000     -68.04560000
H      -47.75750000     -32.01410000     -67.13750000
H      -49.05800000     -32.98100000     -67.91900000
C      -46.49760000     -37.09490000     -69.99920000
H      -45.60380000     -37.68790000     -69.90560000
H      -47.43900000     -37.54880000     -69.68820000
S      -48.18300000     -31.53120000     -69.60200000
S      -46.77280000     -36.69960000     -71.77760000
C      -46.51690000     -31.13700000     -70.25760000
H      -46.55210000     -30.08640000     -70.33170000
H      -45.87810000     -31.47880000     -69.45240000
C      -45.31440000     -35.50080000     -72.00710000
H      -44.44720000     -36.12380000     -72.01360000
H      -45.16160000     -34.86060000     -71.13150000
C      -45.48850000     -34.71610000     -73.21920000
H      -45.60260000     -35.43440000     -74.02650000
H      -46.46010000     -34.14390000     -73.22660000
C      -46.26620000     -31.86490000     -71.58980000
H      -47.07390000     -31.42410000     -72.28760000
H      -46.42800000     -32.95900000     -71.39690000
C      -44.95750000     -31.61590000     -72.30530000
C      -44.34270000     -30.39290000     -72.29270000
C      -44.23980000     -32.49990000     -73.21070000
H      -44.51690000     -29.56930000     -71.57740000
C      -43.14640000     -31.87310000     -73.81200000
C      -44.26960000     -33.89560000     -73.45890000
C      -43.15540000     -34.31770000     -74.18370000
S      -42.97940000     -30.17160000     -73.41120000
S      -42.06680000     -32.98500000     -74.52610000
H      -42.79590000     -35.31900000     -74.25520000
