40
Properties=species:S:1:pos:R:3 #=T CELL(abcABC):=T 1.889726e+02=T 90.00000=T Traj:=T positionsangstrom=T Step:=T 0=T Bead:=T pbc="F F F"
C      -46.35900000     -30.39500000     -74.08500000
C      -46.94950000     -30.69820000     -72.82310000
C      -46.20020000     -30.49930000     -71.61300000
C      -44.83220000     -30.20780000     -71.77510000
C      -44.27440000     -29.88920000     -73.02870000
C      -45.02760000     -30.05610000     -74.14610000
H      -46.97280000     -30.37550000     -74.96240000
H      -46.71430000     -30.79350000     -70.68020000
H      -43.22870000     -29.61510000     -73.10760000
H      -44.52980000     -29.99070000     -75.15690000
C      -44.02530000     -29.99110000     -70.53040000
H      -44.61510000     -30.32480000     -69.63790000
H      -43.67230000     -28.99550000     -70.31740000
C      -48.41220000     -31.02670000     -72.73900000
H      -48.95080000     -30.46430000     -71.92490000
H      -49.01760000     -30.83220000     -73.61710000
S      -42.44250000     -30.89410000     -70.73080000
S      -48.52890000     -32.90930000     -72.35190000
C      -42.88800000     -32.54430000     -70.00330000
H      -42.09510000     -32.87920000     -69.27660000
H      -43.82360000     -32.41730000     -69.53510000
C      -47.15870000     -33.72430000     -73.31990000
H      -47.09150000     -33.05640000     -74.13540000
H      -47.75210000     -34.63860000     -73.65910000
C      -45.93480000     -33.94170000     -72.51300000
H      -45.15550000     -34.05830000     -73.23000000
H      -45.61090000     -33.08840000     -71.92560000
C      -42.94930000     -33.73540000     -71.09020000
H      -41.84270000     -33.83130000     -71.34710000
H      -43.59250000     -33.49640000     -71.88920000
C      -43.54930000     -35.02080000     -70.43210000
C      -42.96040000     -35.72000000     -69.40540000
C      -44.86080000     -35.55850000     -70.70610000
H      -41.92420000     -35.68840000     -69.10700000
C      -45.17090000     -36.60190000     -69.90930000
C      -45.94120000     -35.06050000     -71.48680000
C      -47.05790000     -35.85880000     -71.29640000
S      -43.90570000     -37.08250000     -68.79410000
S      -46.74530000     -37.16660000     -70.13010000
H      -48.05260000     -35.55840000     -71.69690000
