40
Properties=species:S:1:pos:R:3 #=T CELL(abcABC):=T 1.889726e+02=T 90.00000=T Traj:=T positionsangstrom=T Step:=T 0=T Bead:=T pbc="F F F"
C      -42.86240000     -35.56720000     -70.01680000
C      -43.93630000     -36.34340000     -70.36330000
C      -45.11490000     -36.03110000     -69.64040000
C      -45.17390000     -35.16590000     -68.53240000
C      -44.00540000     -34.40740000     -68.27980000
C      -42.89520000     -34.58730000     -69.03540000
H      -41.91590000     -35.58110000     -70.60470000
H      -46.08030000     -36.50060000     -70.06970000
H      -44.03820000     -33.61910000     -67.57380000
H      -41.93020000     -34.14180000     -68.69320000
C      -46.57460000     -34.83850000     -67.94230000
H      -46.54920000     -35.07520000     -66.82890000
H      -47.20370000     -35.69600000     -68.32140000
C      -43.97430000     -37.34490000     -71.57120000
H      -43.01730000     -37.48530000     -72.00080000
H      -44.45720000     -38.27340000     -71.22530000
S      -47.22890000     -33.11690000     -68.13780000
S      -45.18920000     -36.72280000     -72.91290000
C      -48.00990000     -33.26480000     -69.91360000
H      -48.51120000     -34.29110000     -69.87250000
H      -48.79750000     -32.47370000     -70.05090000
C      -44.63940000     -34.98020000     -73.00830000
H      -43.57640000     -34.82330000     -73.21080000
H      -44.62830000     -34.63810000     -71.96120000
C      -45.43290000     -34.12100000     -73.91920000
H      -45.25610000     -34.55210000     -74.86660000
H      -46.49210000     -34.26420000     -73.73480000
C      -46.98060000     -33.30900000     -71.04630000
H      -47.47430000     -33.66650000     -71.97230000
H      -46.17290000     -34.02720000     -70.72690000
C      -46.30750000     -32.05150000     -71.42550000
C      -46.52430000     -30.85770000     -70.72000000
C      -45.46780000     -31.85260000     -72.65170000
H      -47.21200000     -30.81490000     -69.91850000
C      -45.16320000     -30.52610000     -72.82950000
C      -44.98570000     -32.69330000     -73.72730000
C      -44.28140000     -31.94710000     -74.63780000
S      -45.74690000     -29.46040000     -71.60470000
S      -44.20930000     -30.17270000     -74.28000000
H      -43.88990000     -32.44040000     -75.51450000
