40
Properties=species:S:1:pos:R:3 #=T CELL(abcABC):=T 1.889726e+02=T 90.00000=T Traj:=T positionsangstrom=T Step:=T 0=T Bead:=T pbc="F F F"
C      -45.50310000     -35.26070000     -67.95840000
C      -46.48220000     -35.61240000     -68.90700000
C      -47.57800000     -34.74440000     -68.94930000
C      -47.68120000     -33.55450000     -68.24330000
C      -46.67780000     -33.25140000     -67.30290000
C      -45.65530000     -34.12860000     -67.16370000
H      -44.64000000     -35.87240000     -67.66310000
H      -48.38940000     -35.08940000     -69.57100000
H      -46.75590000     -32.37670000     -66.68700000
H      -44.89890000     -34.07450000     -66.40920000
C      -48.58580000     -32.40080000     -68.65450000
H      -48.38790000     -31.50960000     -68.08660000
H      -49.65370000     -32.59290000     -68.54960000
C      -46.52160000     -36.89840000     -69.70410000
H      -45.85150000     -37.57940000     -69.32180000
H      -47.56550000     -37.27630000     -69.65190000
S      -48.51910000     -32.13240000     -70.54450000
S      -46.31240000     -36.72900000     -71.53530000
C      -46.68200000     -31.91860000     -70.71290000
H      -46.32810000     -31.03480000     -70.18780000
H      -46.19540000     -32.79460000     -70.32740000
C      -44.94840000     -35.44750000     -71.81230000
H      -43.95400000     -35.92750000     -71.80720000
H      -45.00520000     -34.60570000     -71.11460000
C      -45.17080000     -34.74860000     -73.17230000
H      -45.23910000     -35.53010000     -73.94040000
H      -46.12870000     -34.15880000     -73.06600000
C      -46.36630000     -31.65610000     -72.24260000
H      -46.78140000     -30.68990000     -72.38100000
H      -46.87730000     -32.26760000     -72.96640000
C      -44.87680000     -31.53690000     -72.57420000
C      -44.19650000     -30.34340000     -72.34040000
C      -43.92490000     -32.39450000     -73.30510000
H      -44.55590000     -29.46020000     -71.74080000
C      -42.66070000     -31.88180000     -73.48710000
C      -44.01680000     -33.81330000     -73.59750000
C      -42.80450000     -34.30580000     -74.06740000
S      -42.54620000     -30.20120000     -72.87040000
S      -41.59940000     -33.10120000     -74.16920000
H      -42.70480000     -35.31130000     -74.55420000
