40
Properties=species:S:1:pos:R:3 #=T CELL(abcABC):=T 1.889726e+02=T 90.00000=T Traj:=T positionsangstrom=T Step:=T 0=T Bead:=T pbc="F F F"
C      -42.55000000     -35.78620000     -69.77240000
C      -43.77090000     -36.39340000     -70.22810000
C      -45.02030000     -36.08630000     -69.68090000
C      -45.05260000     -35.22110000     -68.58580000
C      -43.88060000     -34.62870000     -68.10970000
C      -42.64960000     -34.89630000     -68.60860000
H      -41.60010000     -36.02710000     -70.32980000
H      -45.98820000     -36.36520000     -70.01240000
H      -44.03130000     -34.00180000     -67.26500000
H      -41.76440000     -34.32870000     -68.32710000
C      -46.39680000     -34.88780000     -67.95140000
H      -46.38020000     -34.90580000     -66.84490000
H      -47.10790000     -35.54670000     -68.29550000
C      -43.71860000     -37.24670000     -71.46180000
H      -42.68920000     -37.36750000     -71.77820000
H      -44.06150000     -38.32720000     -71.44090000
S      -47.10460000     -33.11420000     -68.33100000
S      -44.79460000     -36.58440000     -72.90020000
C      -47.93890000     -33.53960000     -69.94040000
H      -48.23070000     -34.57790000     -69.99150000
H      -48.91180000     -33.05420000     -69.99200000
C      -44.42110000     -34.77750000     -73.04230000
H      -43.46090000     -34.63490000     -73.55880000
H      -44.20760000     -34.33930000     -72.05230000
C      -45.53210000     -34.09860000     -73.76660000
H      -45.61140000     -34.50360000     -74.79230000
H      -46.46790000     -34.34940000     -73.36550000
C      -47.05040000     -33.34320000     -71.09590000
H      -47.65790000     -33.67420000     -71.98230000
H      -46.22630000     -33.99290000     -71.06180000
C      -46.46590000     -32.00880000     -71.39740000
C      -46.51240000     -30.84060000     -70.66350000
C      -45.78030000     -31.74740000     -72.70640000
H      -46.83170000     -30.84430000     -69.61190000
C      -45.39140000     -30.43130000     -72.86390000
C      -45.36130000     -32.55270000     -73.81860000
C      -44.85460000     -31.83880000     -74.87300000
S      -45.88670000     -29.44400000     -71.56550000
S      -44.62510000     -30.14680000     -74.41480000
H      -44.58950000     -32.16290000     -75.93130000
