40
Properties=species:S:1:pos:R:3 #=T CELL(abcABC):=T 1.889726e+02=T 90.00000=T Traj:=T positionsangstrom=T Step:=T 0=T Bead:=T pbc="F F F"
C      -42.82850000     -35.67200000     -69.95530000
C      -43.96960000     -36.35410000     -70.39290000
C      -45.14310000     -36.00620000     -69.66130000
C      -45.20950000     -35.04130000     -68.64450000
C      -44.04550000     -34.38430000     -68.31770000
C      -42.86650000     -34.71010000     -68.96980000
H      -41.87630000     -35.89550000     -70.37310000
H      -45.99230000     -36.66360000     -69.77520000
H      -44.06510000     -33.64160000     -67.45170000
H      -41.92940000     -34.23630000     -68.61490000
C      -46.42230000     -34.80560000     -67.86850000
H      -46.16400000     -34.77480000     -66.83710000
H      -47.24380000     -35.52330000     -68.11980000
C      -43.99320000     -37.36340000     -71.51610000
H      -42.97830000     -37.52070000     -71.98010000
H      -44.37000000     -38.33140000     -71.24610000
S      -47.04700000     -33.03260000     -68.14980000
S      -45.09640000     -36.73160000     -72.86970000
C      -47.92290000     -33.28820000     -69.79570000
H      -48.55220000     -34.16430000     -69.79020000
H      -48.49200000     -32.41010000     -69.96610000
C      -44.46730000     -35.02190000     -73.02560000
H      -43.47300000     -34.92400000     -73.49680000
H      -44.53650000     -34.65030000     -72.02030000
C      -45.33380000     -34.22790000     -73.96480000
H      -45.04900000     -34.54240000     -74.96400000
H      -46.46450000     -34.27610000     -73.90190000
C      -46.95440000     -33.31900000     -71.03460000
H      -47.46650000     -33.99870000     -71.75940000
H      -46.13520000     -33.99080000     -70.75110000
C      -46.42200000     -32.02410000     -71.53710000
C      -46.58810000     -30.85410000     -70.78550000
C      -45.64960000     -31.85970000     -72.70270000
H      -47.02240000     -30.79400000     -69.78560000
C      -45.30740000     -30.53320000     -72.88550000
C      -45.18040000     -32.65800000     -73.82260000
C      -44.49350000     -31.84260000     -74.73110000
S      -45.86350000     -29.49100000     -71.57850000
S      -44.23800000     -30.18190000     -74.22890000
H      -43.93540000     -32.25120000     -75.58650000
