40
Properties=species:S:1:pos:R:3 #=T CELL(abcABC):=T 1.889726e+02=T 90.00000=T Traj:=T positionsangstrom=T Step:=T 0=T Bead:=T pbc="F F F"
C      -45.29760000     -35.47110000     -67.96710000
C      -46.27920000     -35.76820000     -68.89410000
C      -47.33910000     -34.83120000     -69.05290000
C      -47.41380000     -33.60450000     -68.30500000
C      -46.47000000     -33.35530000     -67.27820000
C      -45.42740000     -34.26160000     -67.16760000
H      -44.51470000     -36.16270000     -67.78040000
H      -47.98560000     -35.02570000     -69.92430000
H      -46.50120000     -32.48670000     -66.78020000
H      -44.70660000     -34.11190000     -66.36650000
C      -48.56720000     -32.62220000     -68.58290000
H      -48.55110000     -31.74690000     -67.91350000
H      -49.51330000     -33.11480000     -68.63070000
C      -46.39900000     -37.03430000     -69.67250000
H      -45.52750000     -37.61950000     -69.59690000
H      -47.30920000     -37.55950000     -69.47670000
S      -48.45000000     -31.95780000     -70.36180000
S      -46.46870000     -36.57270000     -71.50460000
C      -46.70480000     -31.81660000     -70.87010000
H      -46.16590000     -31.03570000     -70.33260000
H      -46.28280000     -32.76500000     -70.54100000
C      -45.21750000     -35.22610000     -71.77470000
H      -44.24040000     -35.57850000     -71.43720000
H      -45.52780000     -34.40240000     -71.12070000
C      -45.30300000     -34.71940000     -73.17200000
H      -45.25850000     -35.53930000     -73.80050000
H      -46.23150000     -34.19360000     -73.23530000
C      -46.40220000     -31.45140000     -72.31910000
H      -46.68020000     -30.42470000     -72.56810000
H      -47.05450000     -32.07820000     -72.99630000
C      -44.92360000     -31.38490000     -72.72750000
C      -44.22200000     -30.24310000     -72.49680000
C      -44.09610000     -32.39390000     -73.29060000
H      -44.63630000     -29.35860000     -72.04080000
C      -42.82180000     -31.89710000     -73.58760000
C      -44.19870000     -33.84360000     -73.47380000
C      -42.94570000     -34.34640000     -73.84000000
S      -42.55580000     -30.27460000     -73.07740000
S      -41.62840000     -33.20400000     -74.06130000
H      -42.84600000     -35.42140000     -73.81570000
