40
Properties=species:S:1:pos:R:3 #=T CELL(abcABC):=T 1.889726e+02=T 90.00000=T Traj:=T positionsangstrom=T Step:=T 0=T Bead:=T pbc="F F F"
C      -45.69030000     -35.45210000     -67.78820000
C      -46.46810000     -35.64360000     -68.92170000
C      -47.45260000     -34.67230000     -69.15720000
C      -47.53380000     -33.46140000     -68.39810000
C      -46.53010000     -33.26530000     -67.44690000
C      -45.63150000     -34.24780000     -67.07010000
H      -44.90210000     -36.24040000     -67.48800000
H      -48.07790000     -34.79130000     -70.08340000
H      -46.30530000     -32.28540000     -66.94280000
H      -44.87570000     -34.15590000     -66.28990000
C      -48.56500000     -32.45820000     -68.76500000
H      -48.35600000     -31.57700000     -68.15070000
H      -49.57110000     -32.88440000     -68.47810000
C      -46.29290000     -36.97390000     -69.65750000
H      -45.41240000     -37.52260000     -69.27870000
H      -47.13350000     -37.66760000     -69.53980000
S      -48.58910000     -32.01570000     -70.54100000
S      -46.19860000     -36.64830000     -71.47170000
C      -46.80740000     -32.23830000     -70.91810000
H      -46.16930000     -31.73020000     -70.19440000
H      -46.61120000     -33.33340000     -70.93080000
C      -44.99450000     -35.31520000     -71.74840000
H      -43.97190000     -35.66810000     -71.42600000
H      -45.16640000     -34.56110000     -70.99540000
C      -45.05700000     -34.90370000     -73.22800000
H      -44.79350000     -35.75050000     -73.82720000
H      -46.03510000     -34.55980000     -73.50090000
C      -46.42170000     -31.66360000     -72.34450000
H      -46.89920000     -30.69590000     -72.63810000
H      -46.90110000     -32.31460000     -73.12860000
C      -44.95140000     -31.52430000     -72.61190000
C      -44.35010000     -30.29650000     -72.35860000
C      -43.99660000     -32.47580000     -73.09590000
H      -44.90390000     -29.39420000     -72.09020000
C      -42.76300000     -31.88720000     -73.31360000
C      -43.96160000     -33.84870000     -73.49910000
C      -42.77950000     -34.32500000     -74.01270000
S      -42.66700000     -30.16410000     -72.93060000
S      -41.59530000     -32.97890000     -74.09030000
H      -42.52750000     -35.36490000     -74.09990000
