40
Properties=species:S:1:pos:R:3 #=T CELL(abcABC):=T 1.889726e+02=T 90.00000=T Traj:=T positionsangstrom=T Step:=T 0=T Bead:=T pbc="F F F"
C      -45.97610000     -36.11510000     -67.42690000
C      -46.63290000     -36.14320000     -68.69080000
C      -47.36460000     -35.06940000     -69.18080000
C      -47.50760000     -33.90350000     -68.39120000
C      -46.80630000     -33.85810000     -67.23720000
C      -46.08620000     -34.94720000     -66.70200000
H      -45.45300000     -36.98960000     -67.11900000
H      -47.80130000     -35.12450000     -70.14050000
H      -46.80810000     -32.90540000     -66.75650000
H      -45.61110000     -34.93670000     -65.70220000
C      -48.37420000     -32.80350000     -68.94390000
H      -48.14570000     -31.84450000     -68.48240000
H      -49.45880000     -33.10190000     -68.88570000
C      -46.38760000     -37.29150000     -69.68370000
H      -45.46230000     -37.80620000     -69.33900000
H      -47.23000000     -37.98800000     -69.90290000
S      -48.33290000     -32.62170000     -70.84600000
S      -46.05050000     -36.72130000     -71.47120000
C      -46.74070000     -31.79620000     -71.12380000
H      -46.85820000     -30.81510000     -70.70960000
H      -46.01460000     -32.44890000     -70.67640000
C      -44.52200000     -35.59360000     -71.46360000
H      -43.81130000     -36.30570000     -71.80680000
H      -44.34980000     -35.32610000     -70.39010000
C      -44.81320000     -34.44690000     -72.41770000
H      -45.25310000     -34.90460000     -73.34210000
H      -45.54540000     -33.81300000     -71.84070000
C      -46.43800000     -31.74660000     -72.64810000
H      -47.16540000     -31.13420000     -73.17560000
H      -46.63140000     -32.75800000     -72.88210000
C      -45.05720000     -31.12540000     -72.91380000
C      -44.71320000     -29.82950000     -73.16640000
C      -44.00480000     -32.05650000     -73.11250000
H      -45.26360000     -28.90930000     -73.12480000
C      -42.78230000     -31.35840000     -73.39010000
C      -43.80230000     -33.49850000     -72.94190000
C      -42.51360000     -33.85820000     -73.22920000
S      -43.03190000     -29.63370000     -73.66560000
S      -41.51950000     -32.48850000     -73.72950000
H      -42.13160000     -34.86650000     -73.13580000
