40
Properties=species:S:1:pos:R:3 #=T CELL(abcABC):=T 1.889726e+02=T 90.00000=T Traj:=T positionsangstrom=T Step:=T 0=T Bead:=T pbc="F F F"
C      -46.01140000     -36.09760000     -67.52240000
C      -46.56580000     -36.14890000     -68.82910000
C      -47.42190000     -35.12000000     -69.30460000
C      -47.52640000     -33.93730000     -68.54930000
C      -46.98750000     -33.90270000     -67.26530000
C      -46.20610000     -34.96660000     -66.70410000
H      -45.22180000     -36.78360000     -67.26180000
H      -47.89750000     -35.24430000     -70.24900000
H      -47.17820000     -33.00140000     -66.67260000
H      -45.78810000     -34.84000000     -65.72740000
C      -48.21350000     -32.69210000     -69.01980000
H      -47.61380000     -31.84570000     -68.60760000
H      -49.20740000     -32.56560000     -68.53420000
C      -46.29450000     -37.32900000     -69.67870000
H      -45.54000000     -37.91440000     -69.19920000
H      -47.11400000     -37.99150000     -69.68100000
S      -48.41180000     -32.70450000     -70.86900000
S      -45.87430000     -36.82840000     -71.46830000
C      -46.85260000     -31.69370000     -71.18240000
H      -46.95310000     -30.74730000     -70.53840000
H      -45.85880000     -32.25250000     -70.85800000
C      -44.47620000     -35.55140000     -71.34530000
H      -43.46380000     -35.93400000     -71.44600000
H      -44.43490000     -35.07110000     -70.32640000
C      -44.76120000     -34.46780000     -72.39300000
H      -45.09870000     -34.90860000     -73.33430000
H      -45.58940000     -33.85990000     -71.97100000
C      -46.62580000     -31.43980000     -72.67030000
H      -47.04680000     -30.49240000     -72.98490000
H      -47.12420000     -32.13820000     -73.34930000
C      -45.10280000     -31.15640000     -72.92880000
C      -44.82380000     -29.88620000     -73.33480000
C      -43.96060000     -32.04450000     -73.01920000
H      -45.35780000     -28.94560000     -73.22410000
C      -42.78490000     -31.36920000     -73.37040000
C      -43.72540000     -33.44750000     -72.78680000
C      -42.42450000     -33.80720000     -72.92960000
S      -43.08300000     -29.66800000     -73.71360000
S      -41.49350000     -32.49120000     -73.61330000
H      -41.91480000     -34.79270000     -72.94730000
