40
Properties=species:S:1:pos:R:3 #=T CELL(abcABC):=T 1.889726e+02=T 90.00000=T Traj:=T positionsangstrom=T Step:=T 0=T Bead:=T pbc="F F F"
C      -45.99680000     -36.12130000     -67.52650000
C      -46.47230000     -36.08880000     -68.84270000
C      -47.18370000     -35.00550000     -69.32040000
C      -47.45040000     -33.88650000     -68.55700000
C      -47.02930000     -33.91040000     -67.18350000
C      -46.28240000     -35.00450000     -66.68590000
H      -45.63610000     -37.07810000     -67.08520000
H      -47.46920000     -34.99500000     -70.39750000
H      -47.31090000     -33.09460000     -66.48730000
H      -46.08270000     -34.97390000     -65.62470000
C      -48.47690000     -32.87900000     -69.09190000
H      -48.42290000     -31.94090000     -68.55290000
H      -49.43930000     -33.28770000     -68.92970000
C      -46.11430000     -37.23190000     -69.72380000
H      -45.33390000     -37.88620000     -69.22920000
H      -47.03360000     -37.87880000     -69.76230000
S      -48.35760000     -32.50520000     -70.87160000
S      -45.70420000     -36.95420000     -71.45380000
C      -46.74930000     -31.76760000     -71.18740000
H      -46.65490000     -30.86050000     -70.69110000
H      -45.91600000     -32.33650000     -70.80560000
C      -44.66520000     -35.37150000     -71.36390000
H      -43.58310000     -35.62990000     -71.40430000
H      -44.96050000     -34.81080000     -70.48300000
C      -44.94110000     -34.45890000     -72.61030000
H      -45.07330000     -35.08000000     -73.48180000
H      -45.85940000     -33.96050000     -72.56060000
C      -46.55670000     -31.53920000     -72.74430000
H      -47.18250000     -30.66830000     -73.00840000
H      -46.91650000     -32.44080000     -73.32520000
C      -45.17260000     -31.14440000     -73.09930000
C      -44.80920000     -29.86040000     -73.41350000
C      -44.04420000     -32.06900000     -73.04470000
H      -45.52350000     -29.02640000     -73.53810000
C      -42.89440000     -31.43910000     -73.50830000
C      -43.82770000     -33.49470000     -72.77330000
C      -42.49170000     -33.82830000     -72.79690000
S      -43.09100000     -29.73850000     -73.79070000
S      -41.49600000     -32.43190000     -73.27070000
H      -42.12540000     -34.84840000     -72.75240000
