40
Properties=species:S:1:pos:R:3 #=T CELL(abcABC):=T 1.889726e+02=T 90.00000=T Traj:=T positionsangstrom=T Step:=T 0=T Bead:=T pbc="F F F"
C      -45.69450000     -35.88810000     -67.63230000
C      -46.41460000     -36.01800000     -68.80120000
C      -47.29770000     -34.98670000     -69.19610000
C      -47.56870000     -33.84580000     -68.42900000
C      -46.93670000     -33.83950000     -67.15380000
C      -46.00730000     -34.81250000     -66.78550000
H      -44.94780000     -36.66760000     -67.35520000
H      -47.74050000     -35.08730000     -70.19470000
H      -47.25470000     -33.00730000     -66.52990000
H      -45.44020000     -34.82640000     -65.80610000
C      -48.51790000     -32.79350000     -68.92420000
H      -48.29820000     -31.85290000     -68.34560000
H      -49.50450000     -33.03150000     -68.63780000
C      -46.04510000     -37.14650000     -69.70200000
H      -45.05510000     -37.50190000     -69.41590000
H      -46.81270000     -37.97470000     -69.59140000
S      -48.40660000     -32.33230000     -70.70940000
S      -46.16520000     -36.83110000     -71.49760000
C      -46.66610000     -31.72490000     -70.95700000
H      -46.48270000     -30.84430000     -70.35530000
H      -45.98280000     -32.41900000     -70.53880000
C      -44.66650000     -35.66440000     -71.66700000
H      -43.80710000     -36.32550000     -71.96450000
H      -44.50280000     -35.17890000     -70.71080000
C      -44.91280000     -34.56660000     -72.68790000
H      -45.31630000     -35.00680000     -73.55360000
H      -45.78030000     -34.02030000     -72.33340000
C      -46.57640000     -31.45830000     -72.44670000
H      -47.12500000     -30.50680000     -72.63820000
H      -47.05050000     -32.22460000     -73.07980000
C      -45.13220000     -31.21710000     -72.97020000
C      -44.77340000     -29.92910000     -73.23940000
C      -44.03700000     -32.24010000     -73.13700000
H      -45.31830000     -28.99420000     -73.33230000
C      -42.84860000     -31.54210000     -73.47710000
C      -43.78480000     -33.64210000     -72.94360000
C      -42.43750000     -33.94980000     -73.18270000
S      -42.99760000     -29.83790000     -73.58290000
S      -41.46040000     -32.58090000     -73.67430000
H      -41.99430000     -34.89000000     -72.94980000
