40
Properties=species:S:1:pos:R:3 #=T CELL(abcABC):=T 1.889726e+02=T 90.00000=T Traj:=T positionsangstrom=T Step:=T 0=T Bead:=T pbc="F F F"
C      -45.67190000     -35.65580000     -67.59950000
C      -46.21070000     -35.79510000     -68.89610000
C      -47.15720000     -34.83430000     -69.30530000
C      -47.54840000     -33.75400000     -68.48960000
C      -46.96060000     -33.67690000     -67.19470000
C      -45.96920000     -34.59910000     -66.79140000
H      -44.84860000     -36.37900000     -67.34780000
H      -47.66070000     -34.89030000     -70.32610000
H      -47.24830000     -32.87700000     -66.44760000
H      -45.36240000     -34.40150000     -65.85260000
C      -48.66720000     -32.76690000     -68.78100000
H      -48.64700000     -31.96260000     -68.00890000
H      -49.65410000     -33.24190000     -68.73280000
C      -45.91180000     -37.02000000     -69.68870000
H      -44.98420000     -37.53000000     -69.35190000
H      -46.57740000     -37.74540000     -69.30310000
S      -48.50890000     -32.11320000     -70.51030000
S      -45.99970000     -36.89920000     -71.54210000
C      -46.73250000     -31.88460000     -70.94480000
H      -46.13750000     -31.14060000     -70.30730000
H      -46.10700000     -32.83680000     -70.75650000
C      -44.75110000     -35.62290000     -71.92740000
H      -43.74050000     -36.06090000     -72.10750000
H      -44.54300000     -35.07220000     -71.01960000
C      -45.08480000     -34.73660000     -73.09720000
H      -45.10430000     -35.27130000     -74.08230000
H      -46.05000000     -34.22440000     -73.00770000
C      -46.52290000     -31.54290000     -72.41550000
H      -47.28970000     -30.86140000     -72.76600000
H      -46.80750000     -32.44160000     -72.98340000
C      -45.10740000     -31.19280000     -72.87430000
C      -44.63310000     -29.92000000     -72.99600000
C      -44.04170000     -32.21060000     -73.00740000
H      -45.06600000     -28.92800000     -72.89430000
C      -42.83230000     -31.64770000     -73.37040000
C      -43.97840000     -33.69710000     -73.18220000
C      -42.68080000     -34.11610000     -73.49740000
S      -42.98440000     -29.90310000     -73.60310000
S      -41.48780000     -32.86640000     -73.48600000
H      -42.42920000     -35.19160000     -73.65120000
