40
Properties=species:S:1:pos:R:3 #=T CELL(abcABC):=T 1.889726e+02=T 90.00000=T Traj:=T positionsangstrom=T Step:=T 0=T Bead:=T pbc="F F F"
C      -44.21560000     -36.62210000     -73.27590000
C      -44.61780000     -36.59730000     -71.92060000
C      -45.92750000     -36.17540000     -71.54630000
C      -46.88760000     -36.17360000     -72.57230000
C      -46.48220000     -36.20520000     -73.92130000
C      -45.10490000     -36.33700000     -74.28290000
H      -43.13630000     -36.79150000     -73.39230000
H      -45.96980000     -36.01780000     -70.54320000
H      -47.26280000     -36.05880000     -74.66550000
H      -44.79020000     -36.24670000     -75.30300000
C      -48.25350000     -35.82550000     -72.21160000
H      -48.49930000     -35.81450000     -71.16710000
H      -49.01810000     -36.49590000     -72.58480000
C      -43.55880000     -36.85330000     -70.88030000
H      -44.10070000     -37.05250000     -69.92580000
H      -43.08840000     -37.75650000     -71.17050000
S      -48.63760000     -34.09770000     -73.05300000
S      -42.20860000     -35.57800000     -70.81510000
C      -47.58350000     -32.76200000     -72.24300000
H      -46.73540000     -32.63160000     -72.87870000
H      -48.24930000     -31.92050000     -72.18400000
C      -43.11300000     -34.03850000     -70.56270000
H      -42.42220000     -33.45620000     -69.96110000
H      -44.02320000     -34.17460000     -70.03600000
C      -43.65940000     -33.23570000     -71.73870000
H      -42.99300000     -33.24050000     -72.63800000
H      -44.65600000     -33.70220000     -72.04150000
C      -47.08060000     -33.18980000     -70.78660000
H      -46.37600000     -34.04590000     -70.88320000
H      -47.87710000     -33.55190000     -70.17650000
C      -46.45110000     -31.99020000     -70.21120000
C      -47.17780000     -31.15700000     -69.32150000
C      -45.19040000     -31.42140000     -70.59920000
H      -48.15300000     -31.53420000     -68.82680000
C      -44.98550000     -30.14110000     -70.06260000
C      -44.00650000     -31.83420000     -71.30130000
C      -42.88220000     -30.95240000     -71.15820000
S      -46.29770000     -29.68380000     -68.94400000
S      -43.35000000     -29.52990000     -70.22290000
H      -41.89760000     -31.09930000     -71.60660000
