40
Properties=species:S:1:pos:R:3 #=T CELL(abcABC):=T 1.889726e+02=T 90.00000=T Traj:=T positionsangstrom=T Step:=T 0=T Bead:=T pbc="F F F"
C      -42.34880000     -29.92420000     -70.93910000
C      -43.06450000     -30.61320000     -71.93330000
C      -43.20850000     -31.98050000     -71.79950000
C      -42.59990000     -32.70730000     -70.69480000
C      -41.76880000     -31.98580000     -69.81030000
C      -41.70630000     -30.57060000     -69.86170000
H      -42.12370000     -28.88640000     -70.91620000
H      -43.79640000     -32.54240000     -72.47210000
H      -41.14650000     -32.50470000     -68.99930000
H      -41.10410000     -29.97230000     -69.17500000
C      -42.95400000     -34.16140000     -70.48750000
H      -42.05330000     -34.72680000     -70.41570000
H      -43.55530000     -34.51410000     -71.28220000
C      -43.79200000     -29.91580000     -73.03600000
H      -43.40380000     -28.87540000     -73.14570000
H      -43.71830000     -30.36860000     -74.01500000
S      -43.85290000     -34.46480000     -68.91780000
S      -45.59590000     -29.81840000     -72.53550000
C      -45.24450000     -33.11900000     -69.05130000
H      -45.21030000     -32.47920000     -68.19820000
H      -45.13290000     -32.50950000     -69.93010000
C      -46.32360000     -31.34810000     -73.25170000
H      -45.54310000     -31.90680000     -73.85430000
H      -47.06350000     -31.00090000     -74.01390000
C      -47.00370000     -32.22960000     -72.16090000
H      -46.50090000     -31.99700000     -71.26430000
H      -47.95650000     -31.82550000     -71.85300000
C      -46.64050000     -33.76900000     -68.96710000
H      -47.40260000     -33.01100000     -69.19930000
H      -46.80560000     -34.15470000     -67.96300000
C      -46.81530000     -34.88440000     -69.99030000
C      -46.94240000     -36.20230000     -69.55050000
C      -47.08640000     -34.74890000     -71.43480000
H      -46.71890000     -36.41860000     -68.56330000
C      -47.33700000     -35.97240000     -72.01240000
C      -47.05380000     -33.70860000     -72.43720000
C      -47.14800000     -34.15180000     -73.72980000
S      -47.24530000     -37.27970000     -70.88770000
S      -47.25190000     -35.90400000     -73.79910000
H      -47.18620000     -33.60760000     -74.69550000
