40
Properties=species:S:1:pos:R:3 #=T CELL(abcABC):=T 1.889726e+02=T 90.00000=T Traj:=T positionsangstrom=T Step:=T 0=T Bead:=T pbc="F F F"
C      -44.04790000     -36.62590000     -73.71800000
C      -44.52400000     -36.73010000     -72.39310000
C      -45.86960000     -36.46510000     -72.10860000
C      -46.76190000     -36.05360000     -73.11020000
C      -46.23690000     -35.90680000     -74.41030000
C      -44.88320000     -36.05140000     -74.68390000
H      -43.05750000     -36.76620000     -73.88800000
H      -46.12060000     -36.63620000     -71.08970000
H      -46.86200000     -35.40970000     -75.22330000
H      -44.67870000     -35.82430000     -75.76710000
C      -48.20790000     -35.85270000     -72.70880000
H      -48.33330000     -36.32270000     -71.69210000
H      -48.83380000     -36.28460000     -73.49890000
C      -43.58990000     -37.06720000     -71.22860000
H      -44.08020000     -37.45910000     -70.30390000
H      -42.93510000     -37.92910000     -71.42020000
S      -48.83410000     -34.13790000     -72.72850000
S      -42.32690000     -35.78440000     -70.82130000
C      -47.41110000     -33.10420000     -72.01230000
H      -46.50100000     -33.45090000     -72.51250000
H      -47.59760000     -32.08960000     -72.38350000
C      -43.24740000     -34.22930000     -70.29500000
H      -42.54550000     -33.77120000     -69.58030000
H      -44.09290000     -34.44790000     -69.65690000
C      -43.64580000     -33.27740000     -71.38120000
H      -42.83710000     -33.30690000     -72.19820000
H      -44.60510000     -33.63860000     -71.76160000
C      -47.26370000     -33.09510000     -70.47840000
H      -46.59810000     -33.96730000     -70.24540000
H      -48.29390000     -33.06300000     -70.04060000
C      -46.52440000     -31.84680000     -69.98740000
C      -47.18470000     -30.96640000     -69.22400000
C      -45.19030000     -31.37320000     -70.34100000
H      -48.17370000     -31.04660000     -69.03140000
C      -44.92740000     -30.07180000     -69.82310000
C      -43.93610000     -31.86550000     -70.91250000
C      -42.89960000     -30.95420000     -70.84170000
S      -46.35830000     -29.45320000     -68.92310000
S      -43.32420000     -29.47630000     -70.12390000
H      -41.82590000     -31.07030000     -70.98140000
