40
Properties=species:S:1:pos:R:3 #=T CELL(abcABC):=T 1.889726e+02=T 90.00000=T Traj:=T positionsangstrom=T Step:=T 0=T Bead:=T pbc="F F F"
C      -44.36750000     -37.05710000     -73.20410000
C      -44.69770000     -36.56750000     -71.92210000
C      -45.99940000     -36.23490000     -71.68450000
C      -46.90730000     -36.09070000     -72.74160000
C      -46.51230000     -36.45670000     -74.02970000
C      -45.26790000     -36.94920000     -74.27250000
H      -43.37620000     -37.48220000     -73.42190000
H      -46.46080000     -35.96730000     -70.71460000
H      -47.32790000     -36.36570000     -74.75790000
H      -44.86250000     -37.35800000     -75.23510000
C      -48.38960000     -35.95860000     -72.44900000
H      -48.72990000     -36.28410000     -71.45380000
H      -48.92670000     -36.38720000     -73.27490000
C      -43.73440000     -36.78240000     -70.90510000
H      -44.14450000     -36.70830000     -69.92060000
H      -43.38850000     -37.85120000     -71.01940000
S      -48.89220000     -34.16940000     -72.75240000
S      -42.26710000     -35.66600000     -71.05260000
C      -47.34960000     -33.22400000     -72.09190000
H      -46.48460000     -33.69670000     -72.52170000
H      -47.39100000     -32.24670000     -72.52490000
C      -42.81850000     -34.01550000     -70.46570000
H      -41.96110000     -33.59410000     -70.10210000
H      -43.42610000     -34.19950000     -69.64110000
C      -43.63000000     -33.15820000     -71.61060000
H      -43.06360000     -33.32580000     -72.55860000
H      -44.57040000     -33.60700000     -71.81650000
C      -47.20570000     -33.07280000     -70.60690000
H      -46.72540000     -33.98650000     -70.15310000
H      -48.25880000     -32.93500000     -70.15400000
C      -46.41350000     -31.79070000     -70.24510000
C      -47.01360000     -30.85090000     -69.38740000
C      -45.08740000     -31.27020000     -70.54380000
H      -47.99130000     -30.88570000     -68.93850000
C      -44.86650000     -30.02020000     -70.08760000
C      -43.85510000     -31.74550000     -71.13550000
C      -42.78640000     -30.84610000     -71.07400000
S      -46.16510000     -29.37160000     -69.04710000
S      -43.28170000     -29.38850000     -70.24370000
H      -41.87610000     -31.15200000     -71.50300000
