40
Properties=species:S:1:pos:R:3 #=T CELL(abcABC):=T 1.889726e+02=T 90.00000=T Traj:=T positionsangstrom=T Step:=T 0=T Bead:=T pbc="F F F"
C      -46.13000000     -34.56510000     -67.82860000
C      -46.15650000     -35.47260000     -68.88430000
C      -47.23070000     -35.42710000     -69.74150000
C      -48.28240000     -34.46150000     -69.64790000
C      -48.19610000     -33.50600000     -68.60540000
C      -47.18210000     -33.66310000     -67.63620000
H      -45.36370000     -34.72250000     -67.04050000
H      -47.22220000     -36.08160000     -70.57670000
H      -48.84900000     -32.62610000     -68.55110000
H      -47.11450000     -32.99130000     -66.83120000
C      -49.29420000     -34.50840000     -70.74760000
H      -50.39380000     -34.34320000     -70.47330000
H      -49.21530000     -35.42900000     -71.32700000
C      -44.97440000     -36.44260000     -69.00090000
H      -44.07200000     -36.04290000     -68.52070000
H      -45.25820000     -37.37230000     -68.49330000
S      -49.03370000     -33.17330000     -72.10290000
S      -44.51650000     -36.98010000     -70.70940000
C      -47.40950000     -32.38970000     -71.84910000
H      -47.66970000     -31.35700000     -71.67370000
H      -46.91180000     -32.90430000     -71.00690000
C      -43.32240000     -35.75690000     -71.31400000
H      -42.79510000     -36.22380000     -72.13130000
H      -42.64730000     -35.44730000     -70.48270000
C      -44.17200000     -34.53740000     -71.68860000
H      -44.74250000     -34.65490000     -72.63680000
H      -44.98230000     -34.40350000     -70.95630000
C      -46.57640000     -32.48810000     -73.09420000
H      -47.08430000     -32.17870000     -73.98890000
H      -46.49140000     -33.56420000     -73.27670000
C      -45.19380000     -31.67670000     -73.07620000
C      -45.16760000     -30.45880000     -73.62670000
C      -43.92950000     -32.14470000     -72.62590000
H      -45.98360000     -29.81930000     -74.06490000
C      -42.95760000     -31.12650000     -72.70420000
C      -43.37250000     -33.33000000     -71.96100000
C      -42.05940000     -33.19450000     -71.57660000
S      -43.59150000     -29.75930000     -73.55740000
S      -41.41480000     -31.59720000     -72.05710000
H      -41.31150000     -33.87280000     -71.18220000
