40
Properties=species:S:1:pos:R:3 #=T CELL(abcABC):=T 1.889726e+02=T 90.00000=T Traj:=T positionsangstrom=T Step:=T 0=T Bead:=T pbc="F F F"
C      -41.88290000     -31.67440000     -71.28250000
C      -42.97470000     -32.25410000     -71.98310000
C      -43.60950000     -33.31450000     -71.34730000
C      -43.23980000     -33.74690000     -70.03880000
C      -42.21790000     -33.08420000     -69.35430000
C      -41.49710000     -32.02380000     -69.96540000
H      -41.44160000     -30.78650000     -71.78040000
H      -44.49440000     -33.79400000     -71.83990000
H      -42.08880000     -33.37600000     -68.33470000
H      -40.83730000     -31.41090000     -69.40050000
C      -44.00780000     -34.77090000     -69.39710000
H      -43.52720000     -35.57610000     -68.88870000
H      -44.60810000     -35.24420000     -70.19330000
C      -43.38590000     -31.90100000     -73.34450000
H      -42.48060000     -31.66770000     -73.97770000
H      -43.90200000     -32.80590000     -73.71340000
S      -45.16690000     -34.05930000     -68.02630000
S      -44.23160000     -30.23030000     -73.24680000
C      -45.84180000     -32.57450000     -68.81920000
H      -45.74510000     -31.61720000     -68.24020000
H      -45.12900000     -32.43870000     -69.62700000
C      -46.01110000     -30.55820000     -73.44490000
H      -46.22720000     -30.84580000     -74.51010000
H      -46.53470000     -29.56270000     -73.42740000
C      -46.61190000     -31.49670000     -72.44310000
H      -46.19340000     -31.41430000     -71.48860000
H      -47.63090000     -31.06140000     -72.17060000
C      -47.31800000     -32.75220000     -69.35300000
H      -47.53830000     -31.85320000     -69.90690000
H      -48.05750000     -32.93870000     -68.55940000
C      -47.45170000     -33.91030000     -70.30520000
C      -47.60910000     -35.18690000     -69.79870000
C      -47.08130000     -33.97880000     -71.69150000
H      -47.91570000     -35.54480000     -68.80500000
C      -46.90770000     -35.30940000     -72.13670000
C      -46.78340000     -32.99220000     -72.76260000
C      -46.41860000     -33.62780000     -73.92130000
S      -47.24690000     -36.49780000     -70.91530000
S      -46.49000000     -35.37210000     -73.86810000
H      -46.26770000     -33.25190000     -74.87990000
