40
Properties=species:S:1:pos:R:3 #=T CELL(abcABC):=T 1.889726e+02=T 90.00000=T Traj:=T positionsangstrom=T Step:=T 0=T Bead:=T pbc="F F F"
C      -44.10050000     -35.73380000     -74.07750000
C      -44.39300000     -36.48140000     -72.91060000
C      -45.69810000     -36.45280000     -72.39410000
C      -46.65240000     -35.58840000     -72.96100000
C      -46.27910000     -34.85020000     -74.12160000
C      -45.02280000     -34.84320000     -74.67260000
H      -43.06520000     -35.56690000     -74.43590000
H      -46.03110000     -36.99920000     -71.45810000
H      -47.11820000     -34.22270000     -74.56000000
H      -44.68620000     -34.39300000     -75.55050000
C      -48.03860000     -35.61780000     -72.28520000
H      -48.00150000     -35.82580000     -71.24420000
H      -48.47110000     -36.48360000     -72.65900000
C      -43.18010000     -37.13940000     -72.13530000
H      -43.49670000     -38.00810000     -71.50960000
H      -42.56230000     -37.65290000     -72.93050000
S      -49.10090000     -34.22860000     -72.52050000
S      -42.24610000     -35.90610000     -71.26430000
C      -47.86550000     -32.83360000     -72.09960000
H      -47.03930000     -32.77070000     -72.82310000
H      -48.36740000     -31.89810000     -72.16580000
C      -43.66620000     -34.82270000     -70.58450000
H      -43.34050000     -34.62780000     -69.59120000
H      -44.67390000     -35.33770000     -70.61130000
C      -43.76480000     -33.51470000     -71.37080000
H      -42.92730000     -33.39930000     -71.98130000
H      -44.70950000     -33.54120000     -71.92080000
C      -47.20380000     -33.12990000     -70.73540000
H      -46.38140000     -33.85670000     -70.84090000
H      -47.95060000     -33.34460000     -69.93370000
C      -46.49600000     -31.87670000     -70.22390000
C      -47.22930000     -30.88890000     -69.68750000
C      -45.10140000     -31.58900000     -70.12590000
H      -48.30450000     -31.01250000     -69.55800000
C      -44.87380000     -30.33710000     -69.50880000
C      -43.89190000     -32.22870000     -70.55680000
C      -42.80090000     -31.53380000     -70.18120000
S      -46.36140000     -29.52900000     -69.03260000
S      -43.14210000     -30.01710000     -69.32790000
H      -41.74280000     -31.89410000     -70.25720000
