40
Properties=species:S:1:pos:R:3 #=T CELL(abcABC):=T 1.889726e+02=T 90.00000=T Traj:=T positionsangstrom=T Step:=T 0=T Bead:=T pbc="F F F"
C      -46.49140000     -30.41090000     -73.95240000
C      -46.96150000     -30.67410000     -72.64070000
C      -46.14890000     -30.47520000     -71.54350000
C      -44.88330000     -29.86690000     -71.75890000
C      -44.38880000     -29.63220000     -73.05170000
C      -45.22850000     -29.81690000     -74.13120000
H      -47.14580000     -30.64050000     -74.78500000
H      -46.39970000     -30.61360000     -70.51710000
H      -43.51080000     -29.07520000     -73.27360000
H      -44.85770000     -29.72160000     -75.16290000
C      -43.96040000     -29.62780000     -70.61900000
H      -44.43960000     -29.73930000     -69.67530000
H      -43.50850000     -28.69050000     -70.68600000
C      -48.39210000     -31.20630000     -72.42990000
H      -48.88400000     -30.76870000     -71.53840000
H      -48.91890000     -31.08680000     -73.37180000
S      -42.62030000     -30.91500000     -70.45990000
S      -48.44190000     -33.10110000     -72.13230000
C      -43.60010000     -32.42910000     -70.03850000
H      -43.30780000     -32.69380000     -68.96780000
H      -44.68840000     -32.33450000     -70.10780000
C      -47.13310000     -33.57530000     -73.30340000
H      -46.85870000     -32.78250000     -73.96780000
H      -47.51220000     -34.43370000     -73.88560000
C      -45.85240000     -33.95730000     -72.52410000
H      -45.02730000     -34.16170000     -73.30830000
H      -45.52040000     -33.01710000     -72.03490000
C      -43.06180000     -33.57060000     -70.92790000
H      -41.99110000     -33.66220000     -70.90600000
H      -43.37460000     -33.43860000     -71.94150000
C      -43.55430000     -34.91280000     -70.43050000
C      -42.87450000     -35.65750000     -69.50210000
C      -44.81050000     -35.52210000     -70.80100000
H      -41.88950000     -35.48490000     -69.13860000
C      -45.00230000     -36.72610000     -70.12820000
C      -45.94340000     -35.17270000     -71.63660000
C      -47.00020000     -36.03750000     -71.47690000
S      -43.62520000     -37.16650000     -69.11900000
S      -46.62320000     -37.39440000     -70.29730000
H      -47.96030000     -36.06780000     -71.96510000
