40
Properties=species:S:1:pos:R:3 #=T CELL(abcABC):=T 1.889726e+02=T 90.00000=T Traj:=T positionsangstrom=T Step:=T 0=T Bead:=T pbc="F F F"
C      -41.79850000     -31.61180000     -71.29950000
C      -42.84910000     -32.19290000     -71.93990000
C      -43.48630000     -33.23140000     -71.24840000
C      -43.01860000     -33.64450000     -70.00130000
C      -42.03830000     -32.96170000     -69.33030000
C      -41.43800000     -31.90620000     -69.98620000
H      -41.25260000     -30.87440000     -71.86170000
H      -44.34230000     -33.71110000     -71.62580000
H      -41.85460000     -33.18520000     -68.29430000
H      -40.65040000     -31.39950000     -69.53150000
C      -43.93630000     -34.65270000     -69.26470000
H      -43.44930000     -35.40940000     -68.56320000
H      -44.50950000     -35.27030000     -69.98190000
C      -43.23180000     -31.60650000     -73.31310000
H      -42.32720000     -31.34830000     -73.87740000
H      -43.72960000     -32.34100000     -73.88200000
S      -45.06340000     -33.93100000     -67.95320000
S      -44.29090000     -30.11020000     -73.16400000
C      -45.91270000     -32.60610000     -68.79650000
H      -46.15360000     -31.88950000     -68.08150000
H      -45.36510000     -32.20910000     -69.66580000
C      -46.06260000     -30.68840000     -73.58700000
H      -46.17070000     -31.20440000     -74.48550000
H      -46.51860000     -29.76900000     -73.55650000
C      -46.68900000     -31.49200000     -72.37860000
H      -46.03260000     -31.31690000     -71.48750000
H      -47.68830000     -31.10230000     -72.23160000
C      -47.28040000     -33.00430000     -69.32640000
H      -47.70970000     -32.09530000     -69.78410000
H      -47.85260000     -33.18940000     -68.42390000
C      -47.32930000     -34.17680000     -70.23150000
C      -47.52790000     -35.48380000     -69.81790000
C      -47.02310000     -34.12390000     -71.65740000
H      -47.73900000     -35.76390000     -68.81110000
C      -47.06030000     -35.33360000     -72.22640000
C      -46.70160000     -33.03970000     -72.65740000
C      -46.49050000     -33.57520000     -73.89420000
S      -47.48810000     -36.68350000     -71.20650000
S      -46.69520000     -35.36930000     -73.92090000
H      -46.10440000     -33.11490000     -74.76670000
