40
Properties=species:S:1:pos:R:3 #=T CELL(abcABC):=T 1.889726e+02=T 90.00000=T Traj:=T positionsangstrom=T Step:=T 0=T Bead:=T pbc="F F F"
C      -41.58900000     -31.42020000     -71.19640000
C      -42.71790000     -32.03120000     -71.74030000
C      -43.42020000     -32.99430000     -71.00500000
C      -43.01830000     -33.29870000     -69.64030000
C      -41.91660000     -32.63890000     -69.15530000
C      -41.18440000     -31.67380000     -69.90830000
H      -41.12010000     -30.61450000     -71.76770000
H      -44.30080000     -33.56480000     -71.32360000
H      -41.61820000     -32.84240000     -68.16280000
H      -40.38380000     -31.12670000     -69.46480000
C      -43.76180000     -34.32410000     -68.92550000
H      -43.08980000     -34.82250000     -68.24030000
H      -44.24970000     -35.08460000     -69.47950000
C      -43.14110000     -31.69240000     -73.18850000
H      -42.21280000     -31.51240000     -73.71330000
H      -43.65790000     -32.55390000     -73.74660000
S      -45.13150000     -33.51070000     -67.92510000
S      -44.28600000     -30.20100000     -73.27260000
C      -45.95420000     -32.37160000     -69.14550000
H      -46.14970000     -31.42540000     -68.59360000
H      -45.24880000     -32.06860000     -69.92720000
C      -45.87830000     -31.01070000     -73.73310000
H      -45.72760000     -31.54740000     -74.67200000
H      -46.50550000     -30.19650000     -74.07940000
C      -46.55170000     -31.91160000     -72.64910000
H      -46.21770000     -31.68000000     -71.63170000
H      -47.64390000     -31.58070000     -72.61280000
C      -47.32350000     -32.87930000     -69.65000000
H      -47.72890000     -32.06850000     -70.20810000
H      -48.00720000     -32.92350000     -68.75850000
C      -47.33890000     -34.13550000     -70.41100000
C      -47.59680000     -35.36670000     -69.84090000
C      -47.16630000     -34.27980000     -71.82150000
H      -47.52550000     -35.63890000     -68.84880000
C      -47.33870000     -35.62370000     -72.29500000
C      -46.65530000     -33.40860000     -72.86660000
C      -46.67270000     -34.03610000     -74.09370000
S      -47.39170000     -36.70280000     -70.92670000
S      -47.02360000     -35.77720000     -73.96220000
H      -46.40910000     -33.62680000     -75.02200000
