40
Properties=species:S:1:pos:R:3 #=T CELL(abcABC):=T 1.889726e+02=T 90.00000=T Traj:=T positionsangstrom=T Step:=T 0=T Bead:=T pbc="F F F"
C      -41.37810000     -31.32010000     -71.12270000
C      -42.51950000     -31.87720000     -71.80330000
C      -43.30380000     -32.80210000     -71.15980000
C      -43.06360000     -33.14600000     -69.86180000
C      -42.06970000     -32.50920000     -69.11930000
C      -41.24410000     -31.50860000     -69.72580000
H      -40.84070000     -30.57740000     -71.72760000
H      -44.13550000     -33.17530000     -71.68350000
H      -41.88960000     -32.75650000     -68.11720000
H      -40.49250000     -30.93130000     -69.15740000
C      -44.02170000     -34.15260000     -69.15960000
H      -43.36840000     -34.79390000     -68.51810000
H      -44.63080000     -34.76080000     -69.90160000
C      -42.84550000     -31.50550000     -73.20150000
H      -41.92020000     -31.05720000     -73.70990000
H      -43.08460000     -32.37450000     -73.78550000
S      -45.02780000     -33.13610000     -67.94520000
S      -44.29120000     -30.41100000     -73.26020000
C      -46.15610000     -32.26580000     -69.16460000
H      -46.28210000     -31.30840000     -68.66020000
H      -45.62810000     -31.92680000     -70.04340000
C      -45.64280000     -31.48810000     -73.92710000
H      -45.14250000     -32.36910000     -74.40720000
H      -46.13290000     -30.86250000     -74.66930000
C      -46.70490000     -31.97870000     -72.88770000
H      -46.25650000     -31.83810000     -71.81800000
H      -47.68390000     -31.45760000     -72.93440000
C      -47.48610000     -32.91210000     -69.62340000
H      -47.94310000     -32.09960000     -70.22330000
H      -48.11900000     -33.07780000     -68.83930000
C      -47.49020000     -34.20190000     -70.37760000
C      -47.44860000     -35.38740000     -69.69750000
C      -47.29990000     -34.38340000     -71.80780000
H      -47.54020000     -35.49370000     -68.63390000
C      -47.13220000     -35.70030000     -72.11850000
C      -46.99440000     -33.55040000     -72.94880000
C      -46.84130000     -34.23800000     -74.13400000
S      -47.37470000     -36.77820000     -70.75180000
S      -46.99160000     -35.93660000     -73.86280000
H      -46.42700000     -33.80580000     -75.05230000
