40
Properties=species:S:1:pos:R:3 #=T CELL(abcABC):=T 1.889726e+02=T 90.00000=T Traj:=T positionsangstrom=T Step:=T 0=T Bead:=T pbc="F F F"
C      -47.39040000     -35.41210000     -67.56750000
C      -46.52810000     -35.65210000     -68.67290000
C      -46.97740000     -35.34240000     -70.03840000
C      -48.22370000     -34.75860000     -70.21430000
C      -49.01310000     -34.41150000     -69.04850000
C      -48.62420000     -34.75470000     -67.81250000
H      -47.11990000     -35.77040000     -66.57710000
H      -46.42090000     -35.67700000     -70.89650000
H      -49.95660000     -33.82600000     -69.12020000
H      -49.30190000     -34.45290000     -66.95520000
C      -48.69960000     -34.34550000     -71.57630000
H      -49.66500000     -34.73380000     -71.88980000
H      -47.93610000     -34.55480000     -72.29920000
C      -45.07800000     -35.99120000     -68.29870000
H      -44.61920000     -35.05020000     -67.96730000
H      -44.95160000     -36.75950000     -67.45850000
S      -48.90430000     -32.49630000     -71.69450000
S      -44.00090000     -36.70790000     -69.66430000
C      -47.20950000     -31.80540000     -71.88410000
H      -47.27480000     -30.75850000     -71.86480000
H      -46.66260000     -32.04010000     -70.96170000
C      -43.22390000     -35.17120000     -70.17850000
H      -42.48050000     -35.60700000     -70.74610000
H      -42.76360000     -34.68530000     -69.28110000
C      -44.12270000     -34.11880000     -70.82590000
H      -44.70010000     -34.66600000     -71.49900000
H      -44.76000000     -33.60100000     -70.14460000
C      -46.57980000     -32.33810000     -73.13130000
H      -47.11470000     -32.08070000     -74.04780000
H      -46.58490000     -33.49510000     -73.18060000
C      -45.17910000     -31.83170000     -73.32040000
C      -45.04490000     -30.90540000     -74.26750000
C      -43.81070000     -32.20330000     -72.72520000
H      -45.86430000     -30.50330000     -74.89860000
C      -42.87250000     -31.34250000     -73.20700000
C      -43.36690000     -33.05040000     -71.66360000
C      -41.99980000     -32.90990000     -71.45420000
S      -43.40870000     -30.35160000     -74.55670000
S      -41.32000000     -31.57710000     -72.48990000
H      -41.42840000     -33.52510000     -70.79040000
