40
Properties=species:S:1:pos:R:3 #=T CELL(abcABC):=T 1.889726e+02=T 90.00000=T Traj:=T positionsangstrom=T Step:=T 0=T Bead:=T pbc="F F F"
C      -47.33020000     -35.45340000     -67.41900000
C      -46.52850000     -35.72360000     -68.60660000
C      -47.02500000     -35.34190000     -69.87670000
C      -48.27680000     -34.69680000     -70.05210000
C      -49.07670000     -34.60460000     -68.93850000
C      -48.56720000     -34.90270000     -67.69670000
H      -46.94550000     -35.78260000     -66.51860000
H      -46.37580000     -35.44330000     -70.76200000
H      -50.10200000     -34.15880000     -68.94660000
H      -49.23300000     -34.68310000     -66.82460000
C      -48.70800000     -34.34830000     -71.46890000
H      -49.64900000     -34.86780000     -71.69030000
H      -47.94100000     -34.63010000     -72.22610000
C      -45.19230000     -36.39650000     -68.37090000
H      -44.72770000     -35.98460000     -67.50930000
H      -45.41440000     -37.46540000     -68.13990000
S      -49.05640000     -32.53230000     -71.71570000
S      -44.19800000     -36.69720000     -69.88300000
C      -47.33220000     -31.80290000     -71.86170000
H      -47.41530000     -30.78850000     -72.25050000
H      -46.79960000     -31.83830000     -70.87730000
C      -43.15510000     -35.21290000     -70.43340000
H      -42.51090000     -35.53380000     -71.21840000
H      -42.48380000     -34.81400000     -69.63520000
C      -44.01110000     -34.13410000     -70.98050000
H      -44.74670000     -34.44120000     -71.77140000
H      -44.62490000     -33.93070000     -70.05250000
C      -46.29260000     -32.53570000     -72.89530000
H      -46.85780000     -32.78780000     -73.80770000
H      -45.95670000     -33.43890000     -72.39770000
C      -45.08320000     -31.78080000     -73.32670000
C      -44.99740000     -30.95440000     -74.39400000
C      -43.76180000     -32.03820000     -72.68380000
H      -45.91290000     -30.55780000     -74.88550000
C      -42.78640000     -31.23720000     -73.26820000
C      -43.31130000     -32.90690000     -71.59870000
C      -41.99550000     -32.58650000     -71.31720000
S      -43.33890000     -30.29200000     -74.66890000
S      -41.25180000     -31.42090000     -72.41580000
H      -41.30230000     -32.97250000     -70.53860000
