40
Properties=species:S:1:pos:R:3 #=T CELL(abcABC):=T 1.889726e+02=T 90.00000=T Traj:=T positionsangstrom=T Step:=T 0=T Bead:=T pbc="F F F"
C      -41.50260000     -31.16720000     -70.99980000
C      -42.54870000     -31.65510000     -71.81410000
C      -43.40610000     -32.66260000     -71.25490000
C      -43.15680000     -33.09630000     -69.92020000
C      -42.02510000     -32.60610000     -69.20900000
C      -41.13800000     -31.69270000     -69.74920000
H      -40.82190000     -30.52050000     -71.59720000
H      -44.21390000     -33.09510000     -71.88330000
H      -41.97830000     -32.99180000     -68.17360000
H      -40.21720000     -31.39930000     -69.26770000
C      -44.10140000     -34.03080000     -69.14450000
H      -43.55250000     -34.71320000     -68.48040000
H      -44.68010000     -34.45830000     -69.89990000
C      -42.62110000     -31.19080000     -73.19370000
H      -41.82930000     -30.51050000     -73.47080000
H      -42.57710000     -32.08780000     -73.98120000
S      -45.22560000     -33.12390000     -68.00870000
S      -44.23650000     -30.33160000     -73.52850000
C      -46.14160000     -31.98740000     -69.15850000
H      -46.40950000     -31.11180000     -68.57020000
H      -45.36810000     -31.64450000     -69.86300000
C      -45.38340000     -31.79710000     -73.94820000
H      -44.67620000     -32.55770000     -74.08500000
H      -45.84030000     -31.60730000     -74.91760000
C      -46.44300000     -32.21470000     -72.90630000
H      -46.12410000     -31.90440000     -71.86280000
H      -47.41410000     -31.78220000     -73.24800000
C      -47.40910000     -32.73390000     -69.80030000
H      -47.83440000     -32.07630000     -70.55780000
H      -48.11810000     -32.77160000     -69.03660000
C      -47.27780000     -34.13050000     -70.38240000
C      -47.67930000     -35.27300000     -69.63230000
C      -47.08050000     -34.46300000     -71.72290000
H      -47.79770000     -35.21980000     -68.60180000
C      -47.22930000     -35.80870000     -71.98520000
C      -46.77340000     -33.71480000     -72.92510000
C      -46.74780000     -34.50410000     -74.01090000
S      -47.52220000     -36.73330000     -70.61050000
S      -47.11250000     -36.15010000     -73.68480000
H      -46.61470000     -34.12890000     -74.98510000
