40
Properties=species:S:1:pos:R:3 #=T CELL(abcABC):=T 1.889726e+02=T 90.00000=T Traj:=T positionsangstrom=T Step:=T 0=T Bead:=T pbc="F F F"
C      -41.48950000     -31.14140000     -70.96600000
C      -42.40290000     -31.80450000     -71.88760000
C      -43.07950000     -32.89570000     -71.39630000
C      -43.07980000     -33.18530000     -69.96820000
C      -42.18020000     -32.50770000     -69.07970000
C      -41.37840000     -31.44370000     -69.63280000
H      -40.90470000     -30.29820000     -71.28470000
H      -43.84050000     -33.35380000     -71.87910000
H      -42.07850000     -32.69920000     -68.01100000
H      -40.65730000     -30.94500000     -68.96910000
C      -44.06480000     -34.14100000     -69.30830000
H      -43.58380000     -34.80080000     -68.55330000
H      -44.48520000     -34.91910000     -69.95230000
C      -42.58010000     -31.42940000     -73.30730000
H      -41.75860000     -30.67820000     -73.56890000
H      -42.58250000     -32.31830000     -73.91340000
S      -45.36230000     -33.32560000     -68.35160000
S      -44.17380000     -30.50400000     -73.69450000
C      -46.05550000     -32.03100000     -69.38950000
H      -46.02160000     -31.05050000     -68.88190000
H      -45.38090000     -31.87080000     -70.25360000
C      -45.22080000     -31.93780000     -74.15630000
H      -44.52830000     -32.79190000     -74.47840000
H      -45.81860000     -31.75790000     -75.06070000
C      -46.17410000     -32.28420000     -72.99720000
H      -45.63580000     -32.23830000     -72.04870000
H      -47.04790000     -31.57360000     -73.03050000
C      -47.52070000     -32.37240000     -69.87760000
H      -47.67710000     -31.67100000     -70.72170000
H      -48.26220000     -32.17940000     -69.18000000
C      -47.61120000     -33.78790000     -70.35500000
C      -48.05750000     -34.80790000     -69.50820000
C      -47.13910000     -34.27430000     -71.70180000
H      -48.28690000     -34.64180000     -68.46520000
C      -47.26400000     -35.68090000     -71.77240000
C      -46.60170000     -33.69420000     -72.93230000
C      -46.36640000     -34.67260000     -73.89550000
S      -47.92740000     -36.41850000     -70.35010000
S      -46.83260000     -36.33820000     -73.27670000
H      -45.92990000     -34.51330000     -74.84360000
