40
Properties=species:S:1:pos:R:3 #=T CELL(abcABC):=T 1.889726e+02=T 90.00000=T Traj:=T positionsangstrom=T Step:=T 0=T Bead:=T pbc="F F F"
C      -46.76110000     -32.49940000     -74.42050000
C      -45.80500000     -33.57700000     -74.62790000
C      -44.46550000     -33.29710000     -74.39830000
C      -44.01540000     -32.00620000     -74.07180000
C      -44.94080000     -30.96110000     -73.93190000
C      -46.28840000     -31.25830000     -74.04870000
H      -47.82350000     -32.74190000     -74.48380000
H      -43.75830000     -34.09860000     -74.51380000
H      -44.76430000     -29.85240000     -73.79590000
H      -46.93880000     -30.38600000     -73.80170000
C      -42.53990000     -31.80220000     -73.92780000
H      -42.14850000     -30.90930000     -74.43650000
H      -41.97930000     -32.68910000     -74.23880000
C      -46.16370000     -35.01800000     -74.97750000
H      -47.28110000     -35.02510000     -75.09320000
H      -45.85680000     -35.38800000     -76.04750000
S      -42.18500000     -31.29170000     -72.21410000
S      -45.63580000     -36.33820000     -73.82560000
C      -43.08600000     -32.42770000     -71.10710000
H      -43.17180000     -33.46350000     -71.59930000
H      -42.41980000     -32.65790000     -70.20480000
C      -46.62930000     -35.88040000     -72.27570000
H      -46.64970000     -36.72090000     -71.57390000
H      -47.66870000     -35.63350000     -72.49760000
C      -45.96740000     -34.69860000     -71.52240000
H      -44.90430000     -34.93400000     -71.55480000
H      -46.09870000     -33.69140000     -71.98600000
C      -44.54110000     -31.88210000     -70.73010000
H      -45.24490000     -32.05370000     -71.57590000
H      -44.38450000     -30.79630000     -70.67510000
C      -45.05820000     -32.38710000     -69.40140000
C      -44.94560000     -31.66890000     -68.24020000
C      -45.86600000     -33.56400000     -69.19630000
H      -44.30180000     -30.75810000     -68.10410000
C      -46.21540000     -33.74850000     -67.83890000
C      -46.34990000     -34.60340000     -70.05300000
C      -47.23180000     -35.43950000     -69.41880000
S      -45.70010000     -32.36990000     -66.82140000
S      -47.28200000     -35.16830000     -67.57420000
H      -47.68960000     -36.30470000     -69.87410000
