40
Properties=species:S:1:pos:R:3 #=T CELL(abcABC):=T 1.889726e+02=T 90.00000=T Traj:=T positionsangstrom=T Step:=T 0=T Bead:=T pbc="F F F"
C      -41.44190000     -31.10780000     -71.03500000
C      -42.40020000     -31.73700000     -71.77120000
C      -43.33360000     -32.58010000     -71.22590000
C      -43.11480000     -33.07570000     -69.96210000
C      -42.03360000     -32.56230000     -69.16710000
C      -41.29670000     -31.56750000     -69.69670000
H      -40.69440000     -30.39960000     -71.43640000
H      -44.12020000     -33.04940000     -71.80500000
H      -41.96820000     -32.97270000     -68.14480000
H      -40.55890000     -31.10200000     -69.00110000
C      -44.02210000     -34.11400000     -69.33370000
H      -43.44090000     -34.84100000     -68.66640000
H      -44.49960000     -34.53770000     -70.16590000
C      -42.52230000     -31.34840000     -73.23320000
H      -41.74060000     -30.71670000     -73.50510000
H      -42.47740000     -32.22060000     -73.89860000
S      -45.36570000     -33.36950000     -68.12190000
S      -44.15430000     -30.52350000     -73.70140000
C      -46.10890000     -32.06960000     -69.23040000
H      -46.29170000     -31.18980000     -68.61830000
H      -45.33140000     -31.75230000     -69.97150000
C      -45.22320000     -32.00330000     -73.97300000
H      -44.57180000     -32.86040000     -73.98620000
H      -45.59160000     -31.81360000     -74.99810000
C      -46.45350000     -32.22880000     -73.12180000
H      -46.32240000     -31.88420000     -72.08350000
H      -47.28390000     -31.75450000     -73.53580000
C      -47.50160000     -32.46790000     -69.81600000
H      -47.74530000     -31.79100000     -70.71000000
H      -48.20770000     -32.24770000     -69.02610000
C      -47.47840000     -33.91020000     -70.37450000
C      -47.90470000     -34.97430000     -69.57330000
C      -47.17380000     -34.29930000     -71.76360000
H      -48.27740000     -34.90590000     -68.55790000
C      -47.31620000     -35.66490000     -71.85040000
C      -46.69050000     -33.67770000     -72.95000000
C      -46.58400000     -34.62620000     -73.96680000
S      -47.73440000     -36.48440000     -70.41210000
S      -46.89060000     -36.23510000     -73.47380000
H      -46.18770000     -34.34630000     -74.87180000
