40
Properties=species:S:1:pos:R:3 #=T CELL(abcABC):=T 1.889726e+02=T 90.00000=T Traj:=T positionsangstrom=T Step:=T 0=T Bead:=T pbc="F F F"
C      -48.46840000     -30.99960000     -73.07770000
C      -47.50500000     -30.81750000     -72.05740000
C      -46.20110000     -30.73300000     -72.34590000
C      -45.80340000     -30.80190000     -73.71530000
C      -46.71480000     -31.02250000     -74.75070000
C      -48.09010000     -31.14390000     -74.42350000
H      -49.47530000     -31.07620000     -72.68080000
H      -45.43540000     -30.53400000     -71.58930000
H      -46.32880000     -31.30580000     -75.72940000
H      -48.76060000     -31.39180000     -75.26280000
C      -44.32360000     -30.74820000     -74.23430000
H      -43.67440000     -30.17200000     -73.50990000
H      -44.22030000     -30.17360000     -75.09880000
C      -47.95960000     -30.68860000     -70.62440000
H      -47.16930000     -30.41350000     -69.92110000
H      -48.90730000     -30.08520000     -70.56040000
S      -43.76880000     -32.44960000     -74.59850000
S      -48.78200000     -32.21150000     -69.80140000
C      -44.22480000     -33.55550000     -73.25530000
H      -45.27050000     -33.38900000     -72.90090000
H      -44.12920000     -34.52990000     -73.67390000
C      -47.45310000     -33.51180000     -69.95680000
H      -47.53320000     -34.08290000     -70.95330000
H      -47.73450000     -34.24820000     -69.23050000
C      -45.97050000     -33.10580000     -69.82510000
H      -45.58940000     -32.62350000     -70.74260000
H      -45.83580000     -32.49250000     -69.00890000
C      -43.25350000     -33.37230000     -72.08110000
H      -43.34750000     -32.44750000     -71.49310000
H      -42.27890000     -33.26540000     -72.50440000
C      -43.23160000     -34.65610000     -71.24450000
C      -42.39230000     -35.72040000     -71.46300000
C      -44.07430000     -34.89140000     -70.09130000
H      -41.82060000     -35.76990000     -72.34500000
C      -43.60090000     -36.05950000     -69.38100000
C      -45.12740000     -34.25670000     -69.37030000
C      -45.39820000     -34.78630000     -68.13110000
S      -42.33990000     -36.92290000     -70.14840000
S      -44.48410000     -36.26450000     -67.80340000
H      -46.18840000     -34.52560000     -67.45680000
