40
Properties=species:S:1:pos:R:3 #=T CELL(abcABC):=T 1.889726e+02=T 90.00000=T Traj:=T positionsangstrom=T Step:=T 0=T Bead:=T pbc="F F F"
C      -48.62720000     -31.31120000     -72.94890000
C      -47.65520000     -31.03260000     -71.98960000
C      -46.33210000     -30.84450000     -72.33090000
C      -45.89150000     -30.90100000     -73.66370000
C      -46.87180000     -31.02490000     -74.65270000
C      -48.24380000     -31.27040000     -74.33870000
H      -49.72230000     -31.46260000     -72.63540000
H      -45.62170000     -30.51130000     -71.53870000
H      -46.60140000     -30.86760000     -75.71200000
H      -48.99770000     -31.10260000     -75.11430000
C      -44.40430000     -30.77640000     -73.87900000
H      -43.90530000     -30.88370000     -72.93530000
H      -44.05480000     -29.92210000     -74.50560000
C      -48.02080000     -30.80050000     -70.57630000
H      -47.15620000     -30.30090000     -70.09850000
H      -48.77400000     -30.01960000     -70.61890000
S      -43.66430000     -32.26020000     -74.75480000
S      -48.60520000     -32.22190000     -69.67480000
C      -44.20050000     -33.54880000     -73.53690000
H      -45.31530000     -33.46520000     -73.37840000
H      -44.06690000     -34.57880000     -73.96920000
C      -47.45600000     -33.53160000     -70.17330000
H      -47.59380000     -33.72400000     -71.20260000
H      -47.69310000     -34.42530000     -69.58960000
C      -46.05560000     -33.15380000     -69.82590000
H      -45.61190000     -32.66180000     -70.74040000
H      -46.08500000     -32.37550000     -68.99350000
C      -43.31210000     -33.36020000     -72.27200000
H      -43.56630000     -32.37660000     -71.83200000
H      -42.19360000     -33.25860000     -72.56270000
C      -43.24690000     -34.58680000     -71.25730000
C      -42.32740000     -35.60300000     -71.47180000
C      -43.96130000     -34.80260000     -70.00130000
H      -41.69180000     -35.54380000     -72.36350000
C      -43.51990000     -35.97460000     -69.35540000
C      -45.19350000     -34.29730000     -69.38580000
C      -45.48660000     -34.88900000     -68.15280000
S      -42.22680000     -36.79440000     -70.14890000
S      -44.46380000     -36.26920000     -67.83810000
H      -46.15800000     -34.69050000     -67.37800000
