40
Properties=species:S:1:pos:R:3 #=T CELL(abcABC):=T 1.889726e+02=T 90.00000=T Traj:=T positionsangstrom=T Step:=T 0=T Bead:=T pbc="F F F"
C      -45.67180000     -31.51420000     -75.10090000
C      -45.57010000     -32.87200000     -74.69630000
C      -44.34340000     -33.19990000     -74.11580000
C      -43.24900000     -32.33100000     -74.03510000
C      -43.37710000     -31.05150000     -74.50510000
C      -44.61210000     -30.66950000     -75.05960000
H      -46.46900000     -31.04370000     -75.54620000
H      -44.31430000     -34.29320000     -73.78730000
H      -42.46390000     -30.49670000     -74.57420000
H      -44.75330000     -29.60470000     -75.26570000
C      -41.94180000     -32.70440000     -73.36220000
H      -41.23340000     -32.26990000     -74.02350000
H      -41.66060000     -33.76800000     -73.24450000
C      -46.83600000     -33.72720000     -74.73960000
H      -47.67030000     -33.22620000     -74.34410000
H      -47.08220000     -33.81620000     -75.83900000
S      -41.96240000     -32.08000000     -71.57020000
S      -46.71640000     -35.37220000     -74.02680000
C      -43.31560000     -33.09630000     -70.76470000
H      -43.32830000     -34.01620000     -71.36330000
H      -42.94450000     -33.43600000     -69.79060000
C      -47.05100000     -34.95530000     -72.28300000
H      -48.07380000     -35.24800000     -71.93020000
H      -47.08360000     -33.86210000     -72.20040000
C      -45.91260000     -35.41820000     -71.31520000
H      -45.92980000     -36.54420000     -71.46500000
H      -45.01150000     -35.08740000     -71.84000000
C      -44.60030000     -32.29170000     -70.67140000
H      -45.13080000     -32.38930000     -71.63890000
H      -44.40020000     -31.24540000     -70.73870000
C      -45.43920000     -32.50710000     -69.50550000
C      -45.74190000     -31.58930000     -68.59140000
C      -45.93100000     -33.81900000     -69.21460000
H      -45.43200000     -30.55310000     -68.47440000
C      -46.50480000     -33.84060000     -67.91310000
C      -46.15640000     -35.11470000     -69.84280000
C      -46.68760000     -36.06070000     -69.05590000
S      -46.58370000     -32.26970000     -67.16180000
S      -47.10510000     -35.43700000     -67.47910000
H      -47.14140000     -36.98720000     -69.31420000
