40
Properties=species:S:1:pos:R:3 #=T CELL(abcABC):=T 1.889726e+02=T 90.00000=T Traj:=T positionsangstrom=T Step:=T 0=T Bead:=T pbc="F F F"
C      -45.47780000     -31.43750000     -75.37270000
C      -45.53420000     -32.62250000     -74.68910000
C      -44.39520000     -33.07260000     -74.05110000
C      -43.30110000     -32.28370000     -73.95640000
C      -43.30680000     -30.96640000     -74.45530000
C      -44.38290000     -30.58070000     -75.23270000
H      -46.39440000     -31.02640000     -75.87940000
H      -44.38480000     -34.10500000     -73.88640000
H      -42.36550000     -30.35640000     -74.23800000
H      -44.30130000     -29.60760000     -75.67570000
C      -42.10020000     -32.85590000     -73.24920000
H      -41.04990000     -32.84070000     -73.70800000
H      -42.26370000     -33.93830000     -73.18660000
C      -46.84420000     -33.48450000     -74.67030000
H      -47.66530000     -32.98400000     -74.07620000
H      -47.24110000     -33.59690000     -75.67660000
S      -41.75760000     -32.14510000     -71.58910000
S      -46.48030000     -35.14580000     -73.99490000
C      -42.98620000     -32.85500000     -70.41800000
H      -42.82100000     -33.94230000     -70.23500000
H      -42.78640000     -32.39480000     -69.44050000
C      -46.99150000     -35.08760000     -72.23700000
H      -47.86560000     -35.74910000     -72.19490000
H      -47.41960000     -34.10720000     -71.95050000
C      -45.91020000     -35.57200000     -71.21900000
H      -45.70970000     -36.61470000     -71.52980000
H      -44.97990000     -34.99200000     -71.50590000
C      -44.48040000     -32.55300000     -70.65160000
H      -44.81260000     -33.14080000     -71.50010000
H      -44.60890000     -31.46350000     -70.86550000
C      -45.32570000     -32.77770000     -69.50820000
C      -45.59810000     -31.80330000     -68.57160000
C      -46.06450000     -34.00830000     -69.19090000
H      -45.25690000     -30.76900000     -68.50660000
C      -46.77160000     -33.84430000     -67.99460000
C      -46.29960000     -35.25540000     -69.83070000
C      -47.12460000     -36.08690000     -69.13270000
S      -46.55620000     -32.33660000     -67.23770000
S      -47.61540000     -35.36270000     -67.60300000
H      -47.42200000     -37.04370000     -69.45040000
