40
Properties=species:S:1:pos:R:3 #=T CELL(abcABC):=T 1.889726e+02=T 90.00000=T Traj:=T positionsangstrom=T Step:=T 0=T Bead:=T pbc="F F F"
C      -48.39220000     -30.88670000     -73.16770000
C      -47.45240000     -30.66760000     -72.16880000
C      -46.08730000     -30.73900000     -72.57920000
C      -45.75900000     -31.01270000     -73.92830000
C      -46.71370000     -31.25950000     -74.89720000
C      -48.07270000     -31.22620000     -74.48660000
H      -49.43740000     -30.70490000     -72.88320000
H      -45.26680000     -30.46020000     -71.97640000
H      -46.44350000     -31.49780000     -75.92100000
H      -48.87570000     -31.41300000     -75.19520000
C      -44.28010000     -30.99960000     -74.33550000
H      -43.70690000     -30.68780000     -73.53310000
H      -44.20700000     -30.39220000     -75.25970000
C      -47.92080000     -30.36210000     -70.72350000
H      -47.03340000     -30.00250000     -70.11630000
H      -48.72960000     -29.62850000     -70.75270000
S      -43.63410000     -32.69650000     -74.75800000
S      -48.55690000     -31.91520000     -69.86440000
C      -44.19550000     -33.72730000     -73.31650000
H      -45.27270000     -33.84820000     -73.16310000
H      -43.93460000     -34.78350000     -73.61200000
C      -47.30480000     -33.31520000     -70.00380000
H      -47.27570000     -33.55070000     -71.04600000
H      -47.80060000     -34.17260000     -69.46030000
C      -45.92100000     -32.96060000     -69.45430000
H      -45.41710000     -32.32350000     -70.12560000
H      -45.92120000     -32.38480000     -68.47990000
C      -43.56120000     -33.38040000     -71.97730000
H      -44.04810000     -32.58120000     -71.50690000
H      -42.50580000     -33.08680000     -72.18810000
C      -43.39720000     -34.66940000     -71.14360000
C      -42.64280000     -35.73450000     -71.42110000
C      -44.06740000     -34.87520000     -69.85860000
H      -41.88750000     -35.80120000     -72.15060000
C      -43.73340000     -36.05700000     -69.21760000
C      -45.10630000     -34.20470000     -69.11250000
C      -45.43160000     -34.83540000     -67.96660000
S      -42.44060000     -36.90950000     -70.06270000
S      -44.64780000     -36.33690000     -67.77280000
H      -46.02750000     -34.39610000     -67.12280000
