40
Properties=species:S:1:pos:R:3 #=T CELL(abcABC):=T 1.889726e+02=T 90.00000=T Traj:=T positionsangstrom=T Step:=T 0=T Bead:=T pbc="F F F"
C      -45.68940000     -34.56130000     -75.15200000
C      -45.22760000     -35.44090000     -74.17900000
C      -46.07280000     -35.72810000     -73.09270000
C      -47.43220000     -35.31750000     -73.11480000
C      -47.79260000     -34.47930000     -74.12170000
C      -47.00930000     -34.11180000     -75.18800000
H      -45.04470000     -34.21980000     -76.01400000
H      -45.73340000     -36.34800000     -72.30550000
H      -48.86080000     -34.28560000     -74.16350000
H      -47.50320000     -33.50650000     -75.98570000
C      -48.47220000     -35.89940000     -72.12460000
H      -48.18490000     -36.87270000     -71.76310000
H      -49.45290000     -36.01170000     -72.51320000
C      -43.75400000     -35.83020000     -74.26230000
H      -43.52840000     -36.57350000     -73.56420000
H      -43.51640000     -36.28500000     -75.29830000
S      -48.80920000     -34.88650000     -70.53860000
S      -42.74400000     -34.29620000     -73.96370000
C      -47.17050000     -34.19950000     -69.96920000
H      -47.19210000     -34.13440000     -68.90910000
H      -46.46800000     -35.00240000     -70.18120000
C      -43.66960000     -33.27230000     -72.72250000
H      -44.69400000     -33.00750000     -73.16430000
H      -43.24600000     -32.30840000     -72.65240000
C      -43.79390000     -33.90240000     -71.32680000
H      -44.81210000     -34.37770000     -71.29840000
H      -42.98000000     -34.71180000     -71.20360000
C      -46.93730000     -32.80780000     -70.59510000
H      -47.90560000     -32.23470000     -70.63630000
H      -46.72620000     -32.97560000     -71.68470000
C      -46.04330000     -31.86490000     -69.87990000
C      -46.53090000     -30.99400000     -68.90000000
C      -44.55330000     -31.97590000     -69.74060000
H      -47.59380000     -30.83580000     -68.81980000
C      -44.07340000     -31.13370000     -68.74190000
C      -43.58360000     -32.90380000     -70.23680000
C      -42.36890000     -32.63840000     -69.73860000
S      -45.28590000     -30.18340000     -67.94840000
S      -42.35490000     -31.34040000     -68.58530000
H      -41.45290000     -33.12320000     -69.91890000
