40
Properties=species:S:1:pos:R:3 #=T CELL(abcABC):=T 1.889726e+02=T 90.00000=T Traj:=T positionsangstrom=T Step:=T 0=T Bead:=T pbc="F F F"
C      -45.87310000     -34.60000000     -75.31980000
C      -45.32200000     -35.32390000     -74.28220000
C      -46.19530000     -35.77820000     -73.27250000
C      -47.49580000     -35.34210000     -73.14900000
C      -47.97750000     -34.47420000     -74.16030000
C      -47.17790000     -34.10040000     -75.19810000
H      -45.16830000     -34.27120000     -76.12040000
H      -45.93250000     -36.51960000     -72.52920000
H      -48.92360000     -34.08700000     -74.09560000
H      -47.66690000     -33.55770000     -76.03680000
C      -48.41210000     -35.94330000     -72.10490000
H      -47.85320000     -36.76150000     -71.57320000
H      -49.38590000     -36.34800000     -72.50620000
C      -43.88550000     -35.76800000     -74.18850000
H      -43.67940000     -36.45270000     -73.28590000
H      -43.46940000     -36.22010000     -75.13600000
S      -48.86730000     -34.65360000     -70.81900000
S      -42.67800000     -34.32530000     -74.01600000
C      -47.26020000     -34.09010000     -70.17930000
H      -47.23860000     -34.04480000     -69.03720000
H      -46.46810000     -34.79780000     -70.42100000
C      -43.52090000     -33.30890000     -72.60430000
H      -44.50610000     -33.02940000     -73.01350000
H      -42.82950000     -32.46770000     -72.59310000
C      -43.66950000     -34.00640000     -71.23600000
H      -44.55650000     -34.58310000     -71.18720000
H      -42.89700000     -34.74300000     -71.14850000
C      -46.82040000     -32.70970000     -70.69600000
H      -47.76270000     -32.15640000     -70.77820000
H      -46.30620000     -32.67660000     -71.64270000
C      -45.96050000     -32.03120000     -69.68120000
C      -46.45980000     -30.98390000     -68.90530000
C      -44.53390000     -32.21090000     -69.44330000
H      -47.49390000     -30.64860000     -68.93820000
C      -44.05360000     -31.28050000     -68.54810000
C      -43.53640000     -33.02500000     -70.00630000
C      -42.31750000     -32.72870000     -69.55100000
S      -45.23080000     -30.10850000     -68.00220000
S      -42.35090000     -31.38600000     -68.41700000
H      -41.34710000     -33.18700000     -69.77240000
