40
Properties=species:S:1:pos:R:3 #=T CELL(abcABC):=T 1.889726e+02=T 90.00000=T Traj:=T positionsangstrom=T Step:=T 0=T Bead:=T pbc="F F F"
C      -46.77790000     -30.54790000     -73.99900000
C      -47.17300000     -30.74490000     -72.70530000
C      -46.40280000     -30.42560000     -71.61040000
C      -45.05920000     -29.89630000     -71.78020000
C      -44.68150000     -29.56540000     -73.11240000
C      -45.52360000     -29.95730000     -74.23120000
H      -47.47680000     -30.74280000     -74.80840000
H      -46.76640000     -30.72460000     -70.67910000
H      -43.67780000     -29.18680000     -73.26550000
H      -45.12360000     -29.95940000     -75.25200000
C      -44.20800000     -29.68400000     -70.59570000
H      -44.87000000     -29.57950000     -69.67890000
H      -43.81110000     -28.65980000     -70.62370000
C      -48.60520000     -31.30420000     -72.38000000
H      -49.04130000     -30.74710000     -71.48910000
H      -49.29720000     -31.15440000     -73.18580000
S      -42.71640000     -30.74570000     -70.45610000
S      -48.43390000     -33.07030000     -71.93870000
C      -43.37290000     -32.37820000     -70.01640000
H      -43.17460000     -32.57830000     -68.96460000
H      -44.49570000     -32.22410000     -70.07260000
C      -47.25810000     -33.81530000     -73.19340000
H      -47.28550000     -33.21340000     -74.07230000
H      -47.81260000     -34.74260000     -73.45960000
C      -45.91770000     -33.96970000     -72.55110000
H      -45.20860000     -33.83250000     -73.37960000
H      -45.66840000     -33.08850000     -71.92160000
C      -42.93810000     -33.52630000     -70.96790000
H      -41.81640000     -33.59680000     -71.04580000
H      -43.34150000     -33.37320000     -72.04600000
C      -43.38480000     -34.86280000     -70.45980000
C      -42.72570000     -35.48170000     -69.38780000
C      -44.69770000     -35.48010000     -70.77610000
H      -41.76850000     -35.18030000     -69.02450000
C      -44.88660000     -36.63970000     -70.02230000
C      -45.73540000     -35.22700000     -71.76010000
C      -46.62900000     -36.31700000     -71.75330000
S      -43.49740000     -36.99850000     -68.90250000
S      -46.33160000     -37.54000000     -70.55350000
H      -47.48150000     -36.33050000     -72.44230000
