40
Properties=species:S:1:pos:R:3 #=T CELL(abcABC):=T 1.889726e+02=T 90.00000=T Traj:=T positionsangstrom=T Step:=T 0=T Bead:=T pbc="F F F"
C      -45.75210000     -34.30080000     -74.97620000
C      -45.19070000     -35.33610000     -74.21450000
C      -45.97180000     -35.96160000     -73.19030000
C      -47.35620000     -35.50930000     -72.91700000
C      -47.94880000     -34.58110000     -73.82390000
C      -47.12460000     -33.99600000     -74.79940000
H      -45.18340000     -33.64100000     -75.52520000
H      -45.60500000     -36.62290000     -72.42000000
H      -48.97620000     -34.30330000     -73.68270000
H      -47.60950000     -33.24550000     -75.43160000
C      -48.18580000     -36.24210000     -71.88720000
H      -47.55440000     -36.98300000     -71.51480000
H      -48.96380000     -36.69270000     -72.45030000
C      -43.73850000     -35.70280000     -74.28080000
H      -43.47540000     -36.43910000     -73.48890000
H      -43.47620000     -36.26450000     -75.20540000
S      -48.90090000     -35.19730000     -70.47490000
S      -42.56830000     -34.25610000     -74.17590000
C      -47.40440000     -34.23060000     -69.66060000
H      -47.92140000     -33.76900000     -68.79260000
H      -46.65300000     -34.92470000     -69.35200000
C      -43.08250000     -33.14790000     -72.80800000
H      -43.88970000     -32.45640000     -73.17720000
H      -42.24430000     -32.44470000     -72.75520000
C      -43.46790000     -33.77080000     -71.47920000
H      -44.48190000     -34.27080000     -71.44870000
H      -42.72000000     -34.60410000     -71.23800000
C      -46.88430000     -33.13360000     -70.56230000
H      -47.82370000     -32.69290000     -70.94270000
H      -46.34010000     -33.52510000     -71.49990000
C      -46.04400000     -32.08290000     -69.82940000
C      -46.71080000     -31.22410000     -68.97490000
C      -44.61410000     -31.97810000     -69.82520000
H      -47.74660000     -31.31210000     -68.64380000
C      -44.22520000     -30.98440000     -68.92850000
C      -43.49520000     -32.71210000     -70.27980000
C      -42.29700000     -32.25570000     -69.80760000
S      -45.56170000     -30.25610000     -68.10490000
S      -42.50970000     -30.96340000     -68.67260000
H      -41.31860000     -32.63470000     -70.06070000
