40
Properties=species:S:1:pos:R:3 #=T CELL(abcABC):=T 1.889726e+02=T 90.00000=T Traj:=T positionsangstrom=T Step:=T 0=T Bead:=T pbc="F F F"
C      -48.32970000     -30.88280000     -73.29180000
C      -47.41140000     -30.51300000     -72.32720000
C      -45.99500000     -30.62970000     -72.73550000
C      -45.62770000     -31.09590000     -73.98080000
C      -46.63660000     -31.52330000     -74.93680000
C      -47.91040000     -31.34950000     -74.54390000
H      -49.44180000     -30.80490000     -73.11630000
H      -45.20310000     -30.23690000     -72.09860000
H      -46.27250000     -31.86480000     -75.89970000
H      -48.81010000     -31.61470000     -75.16630000
C      -44.22890000     -31.21880000     -74.30670000
H      -43.55920000     -30.83190000     -73.52140000
H      -43.93950000     -30.55540000     -75.10950000
C      -47.74870000     -30.06720000     -70.86600000
H      -46.91680000     -29.66630000     -70.36850000
H      -48.48010000     -29.22710000     -70.82550000
S      -43.72980000     -32.89550000     -74.87450000
S      -48.44930000     -31.59350000     -69.95950000
C      -44.06560000     -34.04630000     -73.47750000
H      -45.11020000     -34.47300000     -73.63950000
H      -43.34990000     -34.84860000     -73.68660000
C      -47.20480000     -32.99000000     -70.09590000
H      -46.86420000     -33.08570000     -71.18290000
H      -47.80840000     -33.82760000     -69.77400000
C      -45.99530000     -32.87370000     -69.09840000
H      -45.21910000     -32.11010000     -69.47070000
H      -46.29370000     -32.49780000     -68.10370000
C      -43.84010000     -33.50840000     -71.98690000
H      -44.88080000     -33.14860000     -71.80360000
H      -43.15420000     -32.69960000     -72.03300000
C      -43.54870000     -34.59980000     -70.99260000
C      -42.69030000     -35.63080000     -71.29170000
C      -44.22690000     -34.80820000     -69.71590000
H      -42.18150000     -35.78250000     -72.29040000
C      -43.79590000     -36.06410000     -69.14090000
C      -45.24670000     -34.21530000     -68.90440000
C      -45.35730000     -34.90770000     -67.69290000
S      -42.62900000     -36.91530000     -70.07380000
S      -44.54440000     -36.44330000     -67.67170000
H      -46.11800000     -34.64170000     -66.97860000
