40
Properties=species:S:1:pos:R:3 #=T CELL(abcABC):=T 1.889726e+02=T 90.00000=T Traj:=T positionsangstrom=T Step:=T 0=T Bead:=T pbc="F F F"
C      -45.85070000     -34.28010000     -74.77730000
C      -45.17910000     -35.20820000     -73.99830000
C      -45.83570000     -35.90060000     -72.93970000
C      -47.18660000     -35.57760000     -72.63790000
C      -47.90210000     -34.60380000     -73.42980000
C      -47.17150000     -33.95910000     -74.47000000
H      -45.40570000     -33.96900000     -75.72360000
H      -45.42170000     -36.77510000     -72.39720000
H      -48.92400000     -34.45540000     -73.29560000
H      -47.82060000     -33.27340000     -75.04060000
C      -47.94230000     -36.37340000     -71.65310000
H      -47.31070000     -37.04540000     -71.00690000
H      -48.80830000     -36.93130000     -72.14570000
C      -43.71960000     -35.65680000     -74.30370000
H      -43.38820000     -36.40840000     -73.72670000
H      -43.66630000     -36.07630000     -75.33950000
S      -48.89290000     -35.16180000     -70.65370000
S      -42.57680000     -34.23490000     -74.21710000
C      -47.42320000     -34.38070000     -69.91730000
H      -47.54900000     -33.98030000     -68.91130000
H      -46.62180000     -35.16270000     -69.88810000
C      -43.02960000     -33.04120000     -72.78760000
H      -43.86170000     -32.39090000     -73.11030000
H      -42.11700000     -32.51550000     -72.63250000
C      -43.35660000     -33.75500000     -71.47780000
H      -44.23010000     -34.29100000     -71.62380000
H      -42.61710000     -34.49130000     -71.28650000
C      -46.75610000     -33.25110000     -70.74700000
H      -47.42510000     -32.65840000     -71.24940000
H      -46.07780000     -33.76280000     -71.38020000
C      -46.08170000     -32.30110000     -69.82500000
C      -46.76450000     -31.39710000     -69.03540000
C      -44.62030000     -32.20850000     -69.69640000
H      -47.78950000     -31.17590000     -69.23650000
C      -44.35430000     -31.09340000     -68.89380000
C      -43.39320000     -32.69710000     -70.39170000
C      -42.28410000     -32.06300000     -69.96900000
S      -45.74560000     -30.24590000     -68.24620000
S      -42.61730000     -30.78330000     -68.77440000
H      -41.31400000     -32.19650000     -70.31270000
