40
Properties=species:S:1:pos:R:3 #=T CELL(abcABC):=T 1.889726e+02=T 90.00000=T Traj:=T positionsangstrom=T Step:=T 0=T Bead:=T pbc="F F F"
C      -45.94860000     -34.33510000     -75.13540000
C      -45.42160000     -35.25150000     -74.19760000
C      -46.29950000     -35.79190000     -73.28630000
C      -47.67180000     -35.54340000     -73.28610000
C      -48.22510000     -34.81500000     -74.36660000
C      -47.29530000     -34.21220000     -75.31110000
H      -45.28450000     -34.02870000     -75.88910000
H      -45.83580000     -36.39740000     -72.52710000
H      -49.27220000     -34.63730000     -74.46980000
H      -47.64390000     -33.60610000     -76.09910000
C      -48.47850000     -35.94640000     -72.11100000
H      -47.99360000     -36.70870000     -71.53360000
H      -49.41330000     -36.33610000     -72.55510000
C      -43.97500000     -35.63890000     -74.25360000
H      -43.90340000     -36.54580000     -73.63540000
H      -43.78410000     -35.94700000     -75.19220000
S      -49.00660000     -34.51770000     -71.10910000
S      -42.73040000     -34.40690000     -73.87570000
C      -47.54990000     -33.91320000     -70.16040000
H      -47.87560000     -33.56990000     -69.15530000
H      -46.95840000     -34.79170000     -70.10950000
C      -43.23470000     -33.24760000     -72.47550000
H      -44.11220000     -32.69710000     -72.67070000
H      -42.38210000     -32.51900000     -72.37050000
C      -43.34470000     -33.97650000     -71.13430000
H      -44.24710000     -34.61350000     -71.07210000
H      -42.46160000     -34.64310000     -70.95190000
C      -46.65990000     -32.76310000     -70.88440000
H      -47.35650000     -32.00080000     -71.18520000
H      -46.14210000     -33.16770000     -71.73250000
C      -45.77170000     -31.99110000     -69.91410000
C      -46.31290000     -30.89240000     -69.17230000
C      -44.36520000     -32.14260000     -69.60250000
H      -47.36260000     -30.64760000     -69.21960000
C      -43.91810000     -31.18860000     -68.61710000
C      -43.29340000     -32.96740000     -69.98800000
C      -42.15200000     -32.67870000     -69.32390000
S      -45.24730000     -30.19850000     -67.97750000
S      -42.35680000     -31.51450000     -68.03380000
H      -41.24760000     -33.35750000     -69.38310000
