40
Properties=species:S:1:pos:R:3 #=T CELL(abcABC):=T 1.889726e+02=T 90.00000=T Traj:=T positionsangstrom=T Step:=T 0=T Bead:=T pbc="F F F"
C      -48.41070000     -31.26030000     -73.24800000
C      -47.37270000     -30.74090000     -72.47180000
C      -46.05650000     -30.83210000     -72.95160000
C      -45.79300000     -31.37780000     -74.20420000
C      -46.89210000     -31.86180000     -74.96160000
C      -48.18590000     -31.79380000     -74.50500000
H      -49.40170000     -31.10710000     -72.90260000
H      -45.30310000     -30.48420000     -72.18910000
H      -46.77130000     -32.29730000     -75.99380000
H      -48.97550000     -32.06320000     -75.24330000
C      -44.33030000     -31.47250000     -74.71850000
H      -43.57750000     -30.87190000     -74.09640000
H      -44.18680000     -31.11160000     -75.75410000
C      -47.63690000     -30.14730000     -71.19130000
H      -46.77450000     -29.58980000     -70.87530000
H      -48.46610000     -29.40520000     -71.08680000
S      -43.82210000     -33.18470000     -74.72810000
S      -48.00300000     -31.48680000     -69.92210000
C      -44.34010000     -33.91740000     -73.13880000
H      -45.34390000     -33.71600000     -72.83270000
H      -44.42270000     -35.03850000     -73.20970000
C      -46.64880000     -32.65180000     -70.29940000
H      -46.33280000     -32.77620000     -71.36580000
H      -47.04540000     -33.66760000     -70.06660000
C      -45.37640000     -32.35260000     -69.45730000
H      -44.59540000     -31.79720000     -69.95360000
H      -45.63750000     -31.76790000     -68.57950000
C      -43.35810000     -33.63860000     -71.94580000
H      -43.51920000     -32.56670000     -71.62770000
H      -42.34540000     -33.62960000     -72.35160000
C      -43.43430000     -34.71450000     -70.90650000
C      -42.82410000     -35.87760000     -71.25110000
C      -44.15170000     -34.68890000     -69.66810000
H      -42.37390000     -36.21630000     -72.21230000
C      -43.99980000     -35.94550000     -68.99590000
C      -44.91860000     -33.74130000     -68.88940000
C      -45.42380000     -34.28580000     -67.73590000
S      -43.15780000     -37.12100000     -69.99810000
S      -44.70950000     -35.91540000     -67.42680000
H      -46.13270000     -33.77540000     -67.01690000
