40
Properties=species:S:1:pos:R:3 #=T CELL(abcABC):=T 1.889726e+02=T 90.00000=T Traj:=T positionsangstrom=T Step:=T 0=T Bead:=T pbc="F F F"
C      -41.35700000     -31.37400000     -71.02850000
C      -42.35890000     -31.84080000     -71.89550000
C      -43.18760000     -32.81070000     -71.31550000
C      -43.09020000     -33.20650000     -69.96940000
C      -42.06340000     -32.70280000     -69.14320000
C      -41.23850000     -31.74120000     -69.66330000
H      -40.67130000     -30.64230000     -71.40520000
H      -43.89240000     -33.16440000     -72.01630000
H      -41.89010000     -33.00850000     -68.12220000
H      -40.45640000     -31.25360000     -69.09340000
C      -44.19190000     -34.01650000     -69.38780000
H      -43.84550000     -34.88130000     -68.87070000
H      -44.74310000     -34.33840000     -70.25090000
C      -42.56760000     -31.31220000     -73.26110000
H      -41.74210000     -30.73620000     -73.48910000
H      -42.54490000     -31.98980000     -74.15280000
S      -45.42770000     -33.12650000     -68.16520000
S      -44.12970000     -30.46390000     -73.44750000
C      -46.16250000     -31.94520000     -69.40790000
H      -46.29310000     -31.00280000     -68.91000000
H      -45.37370000     -31.98050000     -70.25440000
C      -45.17940000     -31.96290000     -74.05240000
H      -44.50070000     -32.77360000     -73.94850000
H      -45.52210000     -31.86110000     -75.08100000
C      -46.35270000     -32.24840000     -73.11650000
H      -46.17040000     -31.88130000     -72.11190000
H      -47.22100000     -31.70260000     -73.40950000
C      -47.49200000     -32.46590000     -69.87400000
H      -47.89460000     -31.81390000     -70.65100000
H      -48.17620000     -32.49020000     -69.01720000
C      -47.53440000     -33.83900000     -70.45650000
C      -48.18080000     -34.84880000     -69.73890000
C      -47.04970000     -34.33830000     -71.69060000
H      -48.57220000     -34.81030000     -68.74490000
C      -47.27830000     -35.71880000     -71.85150000
C      -46.57300000     -33.73620000     -72.96590000
C      -46.25340000     -34.72130000     -73.87530000
S      -48.08850000     -36.39170000     -70.45810000
S      -46.68070000     -36.30900000     -73.34990000
H      -45.84760000     -34.57320000     -74.89300000
