40
Properties=species:S:1:pos:R:3 #=T CELL(abcABC):=T 1.889726e+02=T 90.00000=T Traj:=T positionsangstrom=T Step:=T 0=T Bead:=T pbc="F F F"
C      -41.35080000     -31.39950000     -70.85360000
C      -42.34930000     -31.82800000     -71.80780000
C      -43.21790000     -32.75800000     -71.40990000
C      -43.23950000     -33.25400000     -70.06870000
C      -42.41740000     -32.68290000     -69.13230000
C      -41.52310000     -31.72310000     -69.49310000
H      -40.61440000     -30.67380000     -71.13230000
H      -43.87190000     -33.07750000     -72.21420000
H      -42.50370000     -32.86810000     -68.05500000
H      -40.87380000     -31.31870000     -68.78480000
C      -44.26080000     -34.24830000     -69.50650000
H      -43.76120000     -35.00910000     -68.87160000
H      -44.96990000     -34.71860000     -70.23470000
C      -42.32220000     -31.31460000     -73.24600000
H      -41.40280000     -30.67600000     -73.38980000
H      -42.38240000     -32.13630000     -73.90390000
S      -45.23260000     -33.16420000     -68.26400000
S      -43.98460000     -30.43250000     -73.56140000
C      -46.17540000     -32.04580000     -69.37180000
H      -46.27180000     -31.07240000     -68.95760000
H      -45.52190000     -31.72800000     -70.16180000
C      -45.17110000     -31.81650000     -74.14620000
H      -44.54220000     -32.63850000     -74.50380000
H      -45.71520000     -31.42630000     -75.01310000
C      -46.16670000     -32.23580000     -72.99300000
H      -45.87070000     -31.91790000     -71.99360000
H      -47.04380000     -31.58050000     -73.16150000
C      -47.57500000     -32.49340000     -69.88880000
H      -47.88700000     -31.70240000     -70.61210000
H      -48.33960000     -32.36850000     -69.17140000
C      -47.54890000     -33.88900000     -70.39490000
C      -48.06660000     -34.88580000     -69.59920000
C      -47.07940000     -34.30620000     -71.64480000
H      -48.61450000     -34.85770000     -68.62930000
C      -47.40250000     -35.63750000     -71.86410000
C      -46.53570000     -33.68740000     -72.87930000
C      -46.28460000     -34.64260000     -73.81250000
S      -47.99930000     -36.44910000     -70.43230000
S      -46.87560000     -36.25990000     -73.40930000
H      -45.77670000     -34.43970000     -74.72660000
