40
Properties=species:S:1:pos:R:3 #=T CELL(abcABC):=T 1.889726e+02=T 90.00000=T Traj:=T positionsangstrom=T Step:=T 0=T Bead:=T pbc="F F F"
C      -43.81700000     -34.74280000     -67.72680000
C      -45.20440000     -34.81690000     -67.97490000
C      -45.66720000     -35.67670000     -69.02860000
C      -44.71320000     -36.35390000     -69.79100000
C      -43.32340000     -36.34610000     -69.53980000
C      -42.93990000     -35.56190000     -68.47190000
H      -43.41800000     -34.11790000     -66.93000000
H      -46.72240000     -35.68080000     -69.33590000
H      -42.57410000     -36.74040000     -70.26300000
H      -41.96820000     -35.32090000     -68.22810000
C      -45.20630000     -37.27990000     -70.96480000
H      -45.74380000     -38.10900000     -70.61400000
H      -44.30000000     -37.75950000     -71.45540000
C      -46.17040000     -33.91130000     -67.17770000
H      -47.21580000     -34.10390000     -67.38990000
H      -45.91460000     -34.00410000     -66.09290000
S      -46.12490000     -36.35430000     -72.28960000
S      -45.93850000     -32.08610000     -67.46140000
C      -44.70590000     -35.72850000     -73.25650000
H      -43.88610000     -36.43270000     -73.31220000
H      -45.09240000     -35.61230000     -74.30020000
C      -46.47110000     -31.69570000     -69.31720000
H      -46.52200000     -30.63020000     -69.26490000
H      -47.51730000     -31.97100000     -69.43520000
C      -45.49830000     -32.24250000     -70.33280000
H      -44.47390000     -32.07870000     -70.04340000
H      -45.77430000     -33.32840000     -70.40700000
C      -44.19480000     -34.40880000     -72.77150000
H      -43.06020000     -34.44080000     -72.90120000
H      -44.34340000     -34.38940000     -71.67850000
C      -44.70210000     -33.16230000     -73.53370000
C      -44.46860000     -33.01140000     -74.88710000
C      -45.30780000     -31.95660000     -72.98240000
H      -44.02040000     -33.82110000     -75.46320000
C      -45.59110000     -31.07190000     -74.01650000
C      -45.69820000     -31.50270000     -71.66300000
C      -46.22190000     -30.22260000     -71.70800000
S      -45.01740000     -31.54120000     -75.56820000
S      -46.45360000     -29.69470000     -73.44510000
H      -46.68320000     -29.69280000     -70.89810000
