40
Properties=species:S:1:pos:R:3 #=T CELL(abcABC):=T 1.889726e+02=T 90.00000=T Traj:=T positionsangstrom=T Step:=T 0=T Bead:=T pbc="F F F"
C      -41.41420000     -30.94750000     -70.75620000
C      -42.20910000     -31.73160000     -71.58820000
C      -43.02450000     -32.82660000     -71.03360000
C      -43.01570000     -32.99530000     -69.67420000
C      -42.28570000     -32.18860000     -68.79370000
C      -41.53790000     -31.19130000     -69.35190000
H      -40.84750000     -30.12000000     -71.05130000
H      -43.59400000     -33.50690000     -71.74810000
H      -42.56990000     -32.31550000     -67.75100000
H      -40.91840000     -30.60930000     -68.65360000
C      -43.66470000     -34.22460000     -69.14710000
H      -42.98650000     -34.70880000     -68.39790000
H      -43.96250000     -34.87050000     -70.02210000
C      -42.13820000     -31.41390000     -73.06980000
H      -41.39230000     -30.65140000     -73.16340000
H      -41.77380000     -32.22590000     -73.80830000
S      -45.27030000     -34.01190000     -68.14700000
S      -43.64320000     -30.64050000     -73.78570000
C      -45.98900000     -32.49890000     -68.88720000
H      -46.23470000     -31.73900000     -68.15780000
H      -45.27960000     -32.08900000     -69.64050000
C      -44.77450000     -32.15010000     -73.88610000
H      -44.13290000     -33.04880000     -73.96250000
H      -45.19340000     -32.10330000     -74.88290000
C      -45.94120000     -32.15770000     -72.84460000
H      -45.64180000     -31.93650000     -71.83180000
H      -46.66820000     -31.37800000     -73.11670000
C      -47.34720000     -32.73080000     -69.54450000
H      -47.49970000     -31.85680000     -70.10660000
H      -48.12700000     -32.81480000     -68.73230000
C      -47.52850000     -33.93560000     -70.40720000
C      -48.07280000     -35.06050000     -69.82460000
C      -47.29190000     -34.13110000     -71.79190000
H      -48.36490000     -35.15550000     -68.80780000
C      -47.79790000     -35.36500000     -72.20030000
C      -46.57910000     -33.49580000     -72.92470000
C      -46.49860000     -34.37610000     -74.00980000
S      -48.51700000     -36.26720000     -71.00850000
S      -47.40150000     -35.88450000     -73.76580000
H      -46.01610000     -34.23600000     -74.91810000
