40
Properties=species:S:1:pos:R:3 #=T CELL(abcABC):=T 1.889726e+02=T 90.00000=T Traj:=T positionsangstrom=T Step:=T 0=T Bead:=T pbc="F F F"
C      -47.26800000     -35.84180000     -74.50210000
C      -45.96910000     -35.80340000     -73.93970000
C      -45.78020000     -36.11490000     -72.59270000
C      -46.89000000     -36.45710000     -71.79250000
C      -48.19530000     -36.39360000     -72.33700000
C      -48.36080000     -36.22510000     -73.71670000
H      -47.46830000     -35.76510000     -75.64430000
H      -44.78310000     -36.16510000     -72.15560000
H      -49.05430000     -36.81070000     -71.71280000
H      -49.30570000     -36.32400000     -74.12530000
C      -46.70060000     -36.92660000     -70.38380000
H      -45.64370000     -37.05020000     -70.13080000
H      -47.16460000     -37.90080000     -70.27460000
C      -44.84190000     -35.42320000     -74.86860000
H      -43.92410000     -35.82260000     -74.37320000
H      -45.05520000     -35.75670000     -75.86840000
S      -47.67180000     -35.77060000     -69.26840000
S      -44.61010000     -33.59160000     -74.91100000
C      -46.73680000     -34.26760000     -68.82360000
H      -47.50180000     -33.62700000     -68.34520000
H      -45.98830000     -34.47310000     -68.05070000
C      -44.72990000     -33.02840000     -73.16810000
H      -45.67420000     -33.45200000     -72.84120000
H      -44.95730000     -32.00540000     -73.22330000
C      -43.50050000     -33.12180000     -72.25140000
H      -43.56030000     -33.99700000     -71.66930000
H      -42.59980000     -33.20700000     -72.79850000
C      -46.08080000     -33.40520000     -69.99330000
H      -46.87570000     -33.09300000     -70.80570000
H      -45.31440000     -33.94560000     -70.48730000
C      -45.35080000     -32.16400000     -69.51190000
C      -45.72100000     -31.37150000     -68.48190000
C      -44.19790000     -31.57630000     -70.21350000
H      -46.61070000     -31.56110000     -67.80830000
C      -43.75110000     -30.42060000     -69.60380000
C      -43.27970000     -31.90260000     -71.30040000
C      -42.31410000     -30.97700000     -71.48690000
S      -44.72540000     -29.93650000     -68.20350000
S      -42.43630000     -29.61340000     -70.43330000
H      -41.50790000     -30.99520000     -72.20260000
