40
Properties=species:S:1:pos:R:3 #=T CELL(abcABC):=T 1.889726e+02=T 90.00000=T Traj:=T positionsangstrom=T Step:=T 0=T Bead:=T pbc="F F F"
C      -47.26860000     -36.01820000     -74.40450000
C      -46.01970000     -35.89660000     -73.77990000
C      -45.85950000     -36.07710000     -72.38650000
C      -46.97640000     -36.58770000     -71.70930000
C      -48.25860000     -36.62160000     -72.30370000
C      -48.38040000     -36.30260000     -73.64580000
H      -47.37840000     -36.02390000     -75.44230000
H      -44.84230000     -35.92220000     -71.99960000
H      -49.09710000     -36.70950000     -71.70440000
H      -49.39610000     -36.46870000     -74.13660000
C      -46.93150000     -37.01290000     -70.28180000
H      -45.92640000     -37.24850000     -69.91170000
H      -47.63390000     -37.81890000     -70.14630000
C      -44.81330000     -35.48280000     -74.63080000
H      -43.88780000     -35.76360000     -74.13860000
H      -44.72010000     -36.06860000     -75.60420000
S      -47.57960000     -35.59130000     -69.19820000
S      -44.67920000     -33.71480000     -75.05570000
C      -46.12410000     -34.51530000     -68.85270000
H      -46.40550000     -33.95830000     -67.95140000
H      -45.22930000     -35.07760000     -68.56240000
C      -44.93560000     -32.83380000     -73.42160000
H      -45.80880000     -33.10800000     -72.90850000
H      -45.12980000     -31.82370000     -73.82620000
C      -43.65150000     -32.87150000     -72.49520000
H      -43.49790000     -33.85670000     -72.06660000
H      -42.78540000     -32.64090000     -73.08610000
C      -45.81640000     -33.47970000     -69.99100000
H      -46.76410000     -33.25600000     -70.41980000
H      -45.27160000     -33.92940000     -70.91380000
C      -45.19730000     -32.24290000     -69.48190000
C      -45.46400000     -31.55470000     -68.27210000
C      -44.25500000     -31.46730000     -70.26840000
H      -46.10370000     -31.85250000     -67.44240000
C      -43.84490000     -30.25030000     -69.67680000
C      -43.58630000     -31.64500000     -71.50030000
C      -42.59400000     -30.69190000     -71.78100000
S      -44.57490000     -30.09440000     -68.07900000
S      -42.53120000     -29.45410000     -70.50270000
H      -41.93650000     -30.69260000     -72.64820000
