40
Properties=species:S:1:pos:R:3 #=T CELL(abcABC):=T 1.889726e+02=T 90.00000=T Traj:=T positionsangstrom=T Step:=T 0=T Bead:=T pbc="F F F"
C      -41.71250000     -30.95730000     -70.58940000
C      -42.21080000     -31.89440000     -71.51630000
C      -42.79410000     -33.09510000     -71.13390000
C      -42.98040000     -33.31710000     -69.73840000
C      -42.44740000     -32.41620000     -68.73900000
C      -41.75660000     -31.26650000     -69.21880000
H      -41.21060000     -29.99080000     -70.94490000
H      -43.11470000     -33.65090000     -71.96630000
H      -42.47660000     -32.58920000     -67.67830000
H      -41.39960000     -30.54530000     -68.56860000
C      -43.78200000     -34.44660000     -69.17820000
H      -43.21760000     -35.10140000     -68.47950000
H      -44.10180000     -35.17430000     -69.97490000
C      -42.20270000     -31.53490000     -72.99690000
H      -41.25570000     -30.95440000     -73.23620000
H      -42.09600000     -32.35710000     -73.69970000
S      -45.22150000     -33.64520000     -68.22180000
S      -43.70210000     -30.50310000     -73.48550000
C      -45.87940000     -32.26220000     -69.35700000
H      -45.68340000     -31.40800000     -68.72240000
H      -45.18960000     -32.20510000     -70.17630000
C      -44.91610000     -31.80500000     -74.18200000
H      -44.39850000     -32.56550000     -74.79580000
H      -45.57480000     -31.15460000     -74.77950000
C      -45.69970000     -32.30190000     -72.89420000
H      -44.89020000     -32.49660000     -72.18180000
H      -46.26790000     -31.46180000     -72.54040000
C      -47.32580000     -32.60770000     -69.70300000
H      -47.75810000     -31.82180000     -70.41270000
H      -47.87270000     -32.66460000     -68.78300000
C      -47.49230000     -33.93050000     -70.43460000
C      -48.23380000     -34.89340000     -69.78890000
C      -47.09170000     -34.25960000     -71.81970000
H      -48.64240000     -34.91330000     -68.75860000
C      -47.64980000     -35.49520000     -72.14770000
C      -46.48350000     -33.59120000     -72.99210000
C      -46.62790000     -34.36550000     -74.10720000
S      -48.47470000     -36.29660000     -70.82920000
S      -47.36760000     -35.98360000     -73.80770000
H      -46.06470000     -34.11420000     -75.04310000
