40
Properties=species:S:1:pos:R:3 #=T CELL(abcABC):=T 1.889726e+02=T 90.00000=T Traj:=T positionsangstrom=T Step:=T 0=T Bead:=T pbc="F F F"
C      -41.53440000     -31.76790000     -71.29500000
C      -42.66790000     -32.30550000     -71.96400000
C      -43.45600000     -33.26500000     -71.39820000
C      -43.09810000     -33.68400000     -70.05990000
C      -41.87060000     -33.25030000     -69.46720000
C      -41.08180000     -32.28130000     -70.06470000
H      -40.83200000     -31.05870000     -71.81540000
H      -44.16370000     -33.93490000     -71.96710000
H      -41.64120000     -33.53270000     -68.36510000
H      -40.15780000     -31.84870000     -69.51360000
C      -43.92740000     -34.59170000     -69.29980000
H      -43.43940000     -35.47160000     -68.80960000
H      -44.75920000     -34.96160000     -69.96550000
C      -42.96170000     -31.81660000     -73.40420000
H      -41.93780000     -31.46800000     -73.69730000
H      -43.31220000     -32.62740000     -73.95190000
S      -44.69710000     -33.50420000     -67.96220000
S      -44.07300000     -30.37830000     -73.48350000
C      -45.61630000     -32.31890000     -68.90560000
H      -45.68050000     -31.46390000     -68.20660000
H      -45.07210000     -31.95700000     -69.75110000
C      -45.65540000     -31.21150000     -73.84370000
H      -45.46060000     -31.96340000     -74.54910000
H      -46.37290000     -30.68270000     -74.38350000
C      -46.39360000     -31.71380000     -72.54410000
H      -45.72800000     -31.68900000     -71.60000000
H      -47.17550000     -31.03600000     -72.41470000
C      -47.04480000     -32.63270000     -69.29780000
H      -47.36430000     -31.65550000     -69.82140000
H      -47.66400000     -32.84300000     -68.41990000
C      -47.30630000     -33.84450000     -70.18730000
C      -47.78480000     -35.01840000     -69.59090000
C      -47.14650000     -34.03090000     -71.60380000
H      -48.08540000     -35.10660000     -68.50290000
C      -47.42620000     -35.34000000     -72.02090000
C      -46.89610000     -33.12830000     -72.74630000
C      -46.93380000     -33.83760000     -73.91900000
S      -47.88350000     -36.39000000     -70.74950000
S      -47.40440000     -35.50670000     -73.74800000
H      -46.83350000     -33.48090000     -74.95580000
