40
Properties=species:S:1:pos:R:3 #=T CELL(abcABC):=T 1.889726e+02=T 90.00000=T Traj:=T positionsangstrom=T Step:=T 0=T Bead:=T pbc="F F F"
C      -47.18430000     -36.09690000     -73.93150000
C      -45.81760000     -36.02990000     -73.49130000
C      -45.60550000     -36.39430000     -72.14310000
C      -46.66490000     -36.72990000     -71.30500000
C      -47.91320000     -36.97090000     -71.87810000
C      -48.19230000     -36.63840000     -73.18300000
H      -47.39950000     -35.87580000     -75.01110000
H      -44.59880000     -36.17700000     -71.75390000
H      -48.67440000     -37.41730000     -71.26940000
H      -49.23010000     -36.70120000     -73.61500000
C      -46.25440000     -36.94070000     -69.86890000
H      -45.18790000     -36.77500000     -69.74920000
H      -46.51530000     -37.91210000     -69.48040000
C      -44.71030000     -35.53820000     -74.43730000
H      -43.70810000     -35.63850000     -74.06620000
H      -44.61280000     -36.18630000     -75.33440000
S      -46.97390000     -35.74960000     -68.55300000
S      -44.93780000     -33.86020000     -75.18110000
C      -45.71360000     -34.33710000     -68.51610000
H      -46.11370000     -33.78530000     -67.68290000
H      -44.73340000     -34.82510000     -68.34120000
C      -45.10410000     -32.84970000     -73.55850000
H      -45.82810000     -33.26460000     -72.87460000
H      -45.44180000     -31.87580000     -73.90540000
C      -43.77110000     -32.78190000     -72.77710000
H      -43.56790000     -33.66380000     -72.18530000
H      -42.97780000     -32.69660000     -73.49250000
C      -45.70630000     -33.56800000     -69.85050000
H      -46.70520000     -33.53280000     -70.28320000
H      -45.03180000     -34.02040000     -70.62050000
C      -45.16450000     -32.17360000     -69.66830000
C      -45.35390000     -31.54080000     -68.47820000
C      -44.43050000     -31.37340000     -70.60770000
H      -45.89700000     -31.94520000     -67.56220000
C      -44.22140000     -30.13690000     -70.02100000
C      -43.82570000     -31.54200000     -71.91280000
C      -43.17260000     -30.41570000     -72.26880000
S      -44.75170000     -29.91920000     -68.44840000
S      -43.23850000     -29.12350000     -71.10570000
H      -42.45600000     -30.32040000     -73.03500000
