40
Properties=species:S:1:pos:R:3 #=T CELL(abcABC):=T 1.889726e+02=T 90.00000=T Traj:=T positionsangstrom=T Step:=T 0=T Bead:=T pbc="F F F"
C      -41.42840000     -31.96870000     -71.72300000
C      -42.63730000     -32.40050000     -72.25620000
C      -43.41800000     -33.34350000     -71.52920000
C      -42.97680000     -33.84200000     -70.34040000
C      -41.68980000     -33.42210000     -69.81660000
C      -40.95280000     -32.37440000     -70.48320000
H      -40.83990000     -31.23870000     -72.22420000
H      -44.41730000     -33.73340000     -71.81120000
H      -41.43490000     -33.69330000     -68.84580000
H      -40.07280000     -31.99900000     -70.01180000
C      -43.80850000     -34.88630000     -69.64330000
H      -43.17460000     -35.68150000     -69.18650000
H      -44.52020000     -35.38310000     -70.36780000
C      -43.14190000     -31.80740000     -73.52470000
H      -42.35820000     -31.54310000     -74.20570000
H      -43.86540000     -32.45340000     -74.09190000
S      -44.84070000     -34.19620000     -68.17740000
S      -44.11020000     -30.26650000     -73.16550000
C      -45.48730000     -32.51910000     -68.83920000
H      -45.29990000     -31.73790000     -68.12520000
H      -44.84640000     -32.29080000     -69.67030000
C      -45.81490000     -30.85030000     -73.65250000
H      -45.73490000     -31.52700000     -74.45180000
H      -46.26480000     -29.96580000     -74.06570000
C      -46.52150000     -31.50370000     -72.50950000
H      -45.86970000     -31.43620000     -71.70030000
H      -47.50270000     -31.10160000     -72.07500000
C      -47.00510000     -32.42330000     -69.20580000
H      -47.22760000     -31.46550000     -69.68680000
H      -47.57980000     -32.52510000     -68.19620000
C      -47.42560000     -33.62760000     -70.04260000
C      -47.93290000     -34.78550000     -69.44840000
C      -47.21590000     -33.79300000     -71.52090000
H      -47.85180000     -34.98090000     -68.39000000
C      -47.43520000     -35.14650000     -71.88320000
C      -46.81970000     -32.98050000     -72.66040000
C      -46.82130000     -33.70310000     -73.79490000
S      -47.91770000     -36.19760000     -70.52100000
S      -47.29830000     -35.38400000     -73.56950000
H      -46.55360000     -33.47050000     -74.76460000
