40
Properties=species:S:1:pos:R:3 #=T CELL(abcABC):=T 1.889726e+02=T 90.00000=T Traj:=T positionsangstrom=T Step:=T 0=T Bead:=T pbc="F F F"
C      -46.82360000     -30.57450000     -73.99930000
C      -47.29810000     -30.86240000     -72.67830000
C      -46.47090000     -30.46060000     -71.59390000
C      -45.26970000     -29.67790000     -71.76990000
C      -44.80380000     -29.52320000     -73.11880000
C      -45.58470000     -29.91340000     -74.21540000
H      -47.48700000     -30.68280000     -74.84410000
H      -46.68260000     -30.56080000     -70.51380000
H      -43.89520000     -28.95570000     -73.34150000
H      -45.22340000     -29.75420000     -75.20990000
C      -44.43380000     -29.38410000     -70.60120000
H      -44.96410000     -29.32140000     -69.62750000
H      -43.91150000     -28.41600000     -70.69210000
C      -48.59300000     -31.52750000     -72.48640000
H      -49.12730000     -30.94680000     -71.69320000
H      -49.11760000     -31.32290000     -73.42900000
S      -42.92070000     -30.58890000     -70.44400000
S      -48.45110000     -33.30920000     -72.11020000
C      -43.45600000     -32.34690000     -70.17880000
H      -43.38960000     -32.59390000     -69.11190000
H      -44.52270000     -32.35040000     -70.43690000
C      -47.26490000     -34.05360000     -73.28190000
H      -47.09530000     -33.42890000     -74.17170000
H      -47.66330000     -35.00840000     -73.75830000
C      -45.91740000     -34.26220000     -72.64080000
H      -45.13330000     -34.39800000     -73.40440000
H      -45.57890000     -33.33910000     -72.14120000
C      -42.81340000     -33.41350000     -71.04170000
H      -41.75500000     -33.31880000     -70.83090000
H      -42.92740000     -33.32140000     -72.15060000
C      -43.36380000     -34.75010000     -70.51390000
C      -42.59530000     -35.38220000     -69.59830000
C      -44.61920000     -35.44920000     -70.72610000
H      -41.63440000     -34.96230000     -69.22340000
C      -44.71100000     -36.65100000     -70.00100000
C      -45.77260000     -35.35250000     -71.64820000
C      -46.65320000     -36.36520000     -71.42820000
S      -43.29640000     -36.82330000     -68.85320000
S      -46.15150000     -37.57680000     -70.32370000
H      -47.51780000     -36.51020000     -72.02270000
