40
Properties=species:S:1:pos:R:3 #=T CELL(abcABC):=T 1.889726e+02=T 90.00000=T Traj:=T positionsangstrom=T Step:=T 0=T Bead:=T pbc="F F F"
C      -47.10100000     -36.07650000     -74.13070000
C      -45.87090000     -35.99190000     -73.51430000
C      -45.67840000     -36.45780000     -72.19110000
C      -46.82290000     -36.85160000     -71.47370000
C      -47.99640000     -37.08200000     -72.18020000
C      -48.19150000     -36.62910000     -73.46130000
H      -47.17820000     -35.68530000     -75.17200000
H      -44.66580000     -36.47300000     -71.73400000
H      -48.89630000     -37.33960000     -71.58080000
H      -49.08510000     -36.88430000     -73.97580000
C      -46.84130000     -37.08200000     -69.93820000
H      -45.83470000     -37.35710000     -69.64690000
H      -47.57080000     -37.84190000     -69.66040000
C      -44.66610000     -35.36570000     -74.18530000
H      -43.88870000     -35.19850000     -73.46800000
H      -44.28080000     -36.04690000     -74.91990000
S      -47.32000000     -35.55120000     -68.86700000
S      -44.91920000     -33.87570000     -75.11760000
C      -45.75500000     -34.56300000     -68.64830000
H      -45.95710000     -34.02080000     -67.69430000
H      -44.85830000     -35.17460000     -68.51710000
C      -44.95950000     -32.52780000     -73.82450000
H      -45.96390000     -32.51630000     -73.38750000
H      -44.87110000     -31.52460000     -74.25720000
C      -43.88890000     -32.65350000     -72.72590000
H      -44.07240000     -33.52560000     -72.13010000
H      -42.92090000     -32.78100000     -73.23990000
C      -45.62520000     -33.60610000     -69.80410000
H      -46.56600000     -33.32630000     -70.33230000
H      -45.04110000     -34.01450000     -70.57460000
C      -45.01500000     -32.24790000     -69.49480000
C      -45.23940000     -31.59740000     -68.30650000
C      -44.33950000     -31.44620000     -70.45290000
H      -45.57580000     -32.10740000     -67.40170000
C      -43.95550000     -30.22600000     -69.88040000
C      -43.80120000     -31.50670000     -71.77300000
C      -43.06680000     -30.42460000     -72.14660000
S      -44.55580000     -30.01460000     -68.24280000
S      -43.06260000     -29.12700000     -70.95410000
H      -42.76580000     -30.15790000     -73.16940000
