40
Properties=species:S:1:pos:R:3 #=T CELL(abcABC):=T 1.889726e+02=T 90.00000=T Traj:=T positionsangstrom=T Step:=T 0=T Bead:=T pbc="F F F"
C      -47.04000000     -30.49730000     -74.01010000
C      -47.37630000     -30.97170000     -72.72990000
C      -46.58230000     -30.56280000     -71.62350000
C      -45.32330000     -29.96360000     -71.77560000
C      -44.91220000     -29.66810000     -73.07870000
C      -45.76260000     -29.89410000     -74.11640000
H      -47.56350000     -30.64470000     -74.90980000
H      -46.92970000     -30.77390000     -70.66490000
H      -43.95200000     -29.27000000     -73.10350000
H      -45.43930000     -29.68740000     -75.12030000
C      -44.35840000     -29.52740000     -70.60230000
H      -45.01620000     -29.54450000     -69.69460000
H      -43.98190000     -28.56100000     -70.83740000
C      -48.73290000     -31.65840000     -72.45140000
H      -49.28820000     -31.18450000     -71.61520000
H      -49.50260000     -31.56490000     -73.21360000
S      -42.88290000     -30.60770000     -70.45650000
S      -48.46690000     -33.43460000     -72.02140000
C      -43.75470000     -32.22150000     -70.19380000
H      -43.74670000     -32.50870000     -69.15590000
H      -44.83450000     -32.01990000     -70.42900000
C      -47.18910000     -33.90160000     -73.34660000
H      -47.04550000     -33.04620000     -73.98380000
H      -47.59730000     -34.76510000     -73.88360000
C      -45.77190000     -34.15630000     -72.68560000
H      -45.03720000     -34.32310000     -73.53130000
H      -45.44360000     -33.22760000     -72.24510000
C      -43.00440000     -33.29610000     -70.98380000
H      -41.95590000     -33.08940000     -70.99990000
H      -43.29070000     -33.28230000     -72.09090000
C      -43.31980000     -34.69880000     -70.43070000
C      -42.50740000     -35.27270000     -69.47560000
C      -44.42230000     -35.49180000     -70.79810000
H      -41.51480000     -34.97170000     -69.13530000
C      -44.48690000     -36.69540000     -70.12820000
C      -45.60170000     -35.30420000     -71.73370000
C      -46.53160000     -36.26660000     -71.52080000
S      -43.23330000     -36.81990000     -68.89910000
S      -46.08720000     -37.40750000     -70.29150000
H      -47.45970000     -36.46530000     -72.04580000
