40
Properties=species:S:1:pos:R:3 #=T CELL(abcABC):=T 1.889726e+02=T 90.00000=T Traj:=T positionsangstrom=T Step:=T 0=T Bead:=T pbc="F F F"
C      -47.22330000     -36.42120000     -73.38420000
C      -45.84750000     -36.27040000     -73.41880000
C      -45.09640000     -36.56100000     -72.31120000
C      -45.70890000     -36.86600000     -71.07860000
C      -47.12030000     -36.98640000     -71.01170000
C      -47.86510000     -36.78290000     -72.20940000
H      -47.82910000     -36.21050000     -74.26940000
H      -44.02680000     -36.50950000     -72.37230000
H      -47.63160000     -37.20770000     -70.05150000
H      -48.94970000     -36.72920000     -72.15720000
C      -44.90990000     -37.21090000     -69.85370000
H      -43.83960000     -37.20350000     -70.10060000
H      -45.19040000     -38.14640000     -69.34970000
C      -45.07850000     -35.85130000     -74.61310000
H      -44.05330000     -36.07770000     -74.40500000
H      -45.33140000     -36.28110000     -75.63400000
S      -45.03890000     -35.99430000     -68.50880000
S      -45.24260000     -33.99670000     -74.97430000
C      -44.63190000     -34.38290000     -69.35600000
H      -44.14450000     -33.82810000     -68.49920000
H      -43.87020000     -34.57770000     -70.13160000
C      -45.30950000     -33.16490000     -73.39730000
H      -45.83020000     -33.81580000     -72.65560000
H      -45.92970000     -32.22110000     -73.48930000
C      -44.00900000     -32.69470000     -72.74620000
H      -43.71780000     -33.46720000     -72.01740000
H      -43.17940000     -32.48960000     -73.49000000
C      -45.86020000     -33.51360000     -69.86020000
H      -46.80410000     -33.91030000     -69.48300000
H      -45.98080000     -33.70220000     -70.84900000
C      -45.57500000     -32.02920000     -69.70620000
C      -46.11960000     -31.34300000     -68.63760000
C      -44.86690000     -31.23760000     -70.68900000
H      -46.76700000     -31.79320000     -67.97470000
C      -44.91660000     -29.90230000     -70.25360000
C      -44.21620000     -31.35120000     -72.01810000
C      -43.68180000     -30.11530000     -72.46460000
S      -45.87130000     -29.61140000     -68.76780000
S      -44.11420000     -28.77000000     -71.36650000
H      -43.16100000     -29.88350000     -73.43750000
