40
Properties=species:S:1:pos:R:3 #=T CELL(abcABC):=T 1.889726e+02=T 90.00000=T Traj:=T positionsangstrom=T Step:=T 0=T Bead:=T pbc="F F F"
C      -47.00500000     -35.86420000     -73.29850000
C      -45.64950000     -36.06870000     -73.23710000
C      -45.06050000     -36.48820000     -72.03470000
C      -45.88520000     -36.82120000     -70.93380000
C      -47.26050000     -36.56250000     -71.01540000
C      -47.83500000     -36.09530000     -72.17970000
H      -47.31890000     -35.55900000     -74.27940000
H      -44.03210000     -36.45670000     -71.88340000
H      -47.77520000     -36.68310000     -70.02880000
H      -48.85770000     -35.70490000     -72.19020000
C      -45.24350000     -37.27720000     -69.64570000
H      -44.25640000     -37.65590000     -69.89460000
H      -45.82680000     -38.14430000     -69.26980000
C      -44.85190000     -35.57740000     -74.38830000
H      -43.77670000     -35.47840000     -73.98860000
H      -44.79490000     -36.28670000     -75.14930000
S      -45.16380000     -35.96380000     -68.34860000
S      -45.44060000     -34.11890000     -75.26280000
C      -44.74800000     -34.42090000     -69.32000000
H      -43.97130000     -33.92360000     -68.68930000
H      -44.29170000     -34.79510000     -70.21430000
C      -45.27070000     -32.68350000     -74.02000000
H      -46.30240000     -32.48890000     -73.66800000
H      -45.12310000     -31.80780000     -74.70170000
C      -44.34630000     -32.83220000     -72.86450000
H      -44.66930000     -33.72920000     -72.20920000
H      -43.36960000     -33.12000000     -73.27830000
C      -45.98070000     -33.58530000     -69.67640000
H      -46.82110000     -33.79040000     -68.91780000
H      -46.28210000     -33.79610000     -70.72670000
C      -45.64140000     -32.16110000     -69.68410000
C      -46.16600000     -31.38510000     -68.71050000
C      -44.86920000     -31.40040000     -70.65710000
H      -46.71950000     -31.69150000     -67.88550000
C      -44.80840000     -30.00350000     -70.32680000
C      -44.27140000     -31.63770000     -71.91360000
C      -43.56310000     -30.54280000     -72.37960000
S      -45.72330000     -29.68150000     -68.89180000
S      -43.74700000     -29.16390000     -71.38410000
H      -43.16490000     -30.49070000     -73.42810000
