40
Properties=species:S:1:pos:R:3 #=T CELL(abcABC):=T 1.889726e+02=T 90.00000=T Traj:=T positionsangstrom=T Step:=T 0=T Bead:=T pbc="F F F"
C      -46.38030000     -36.72160000     -73.16430000
C      -45.08950000     -36.24090000     -73.38090000
C      -44.27220000     -36.18420000     -72.26280000
C      -44.61870000     -36.63590000     -70.99670000
C      -45.94740000     -37.09450000     -70.82010000
C      -46.79040000     -37.19430000     -71.92730000
H      -47.10870000     -36.72880000     -73.96890000
H      -43.21320000     -35.81850000     -72.42030000
H      -46.24550000     -37.42410000     -69.80740000
H      -47.76940000     -37.66760000     -72.00370000
C      -43.74290000     -36.44780000     -69.77410000
H      -43.04060000     -35.65820000     -70.07930000
H      -43.21490000     -37.36490000     -69.52650000
C      -44.82680000     -35.57770000     -74.68480000
H      -43.77200000     -35.38500000     -74.86180000
H      -45.22450000     -36.24240000     -75.43230000
S      -44.73250000     -35.95730000     -68.36070000
S      -45.95510000     -33.98090000     -74.99140000
C      -44.90920000     -34.09310000     -68.60040000
H      -45.29280000     -33.81790000     -67.64080000
H      -43.80990000     -33.72940000     -68.66990000
C      -45.83870000     -33.16840000     -73.36560000
H      -46.28060000     -33.93790000     -72.67610000
H      -46.50640000     -32.31840000     -73.49480000
C      -44.47330000     -32.75110000     -72.83980000
H      -43.96830000     -33.61940000     -72.40260000
H      -43.84630000     -32.50890000     -73.68430000
C      -45.84160000     -33.73880000     -69.84550000
H      -46.76850000     -34.13920000     -69.65210000
H      -45.35770000     -34.07990000     -70.74840000
C      -45.93240000     -32.15860000     -69.85300000
C      -46.59250000     -31.42630000     -68.86280000
C      -45.22720000     -31.31800000     -70.74330000
H      -47.10460000     -31.83240000     -68.00340000
C      -45.35280000     -29.93250000     -70.40040000
C      -44.62520000     -31.48070000     -72.05300000
C      -44.22680000     -30.28880000     -72.59530000
S      -46.42700000     -29.67390000     -69.08210000
S      -44.53340000     -28.89310000     -71.55200000
H      -43.68310000     -30.32060000     -73.55970000
