40
Properties=species:S:1:pos:R:3 #=T CELL(abcABC):=T 1.889726e+02=T 90.00000=T Traj:=T positionsangstrom=T Step:=T 0=T Bead:=T pbc="F F F"
C      -46.36350000     -36.69740000     -73.07500000
C      -45.06240000     -36.17230000     -73.28530000
C      -44.25330000     -36.08370000     -72.16720000
C      -44.61060000     -36.56830000     -70.92980000
C      -45.78040000     -37.35150000     -70.83600000
C      -46.70880000     -37.37220000     -71.90130000
H      -47.08380000     -36.71830000     -73.87740000
H      -43.31970000     -35.55890000     -72.39330000
H      -45.93130000     -37.92800000     -69.90190000
H      -47.69350000     -37.82180000     -71.74830000
C      -43.62290000     -36.47830000     -69.72130000
H      -42.78830000     -35.78940000     -69.97610000
H      -43.25760000     -37.46440000     -69.39030000
C      -44.72630000     -35.40580000     -74.54590000
H      -43.75890000     -34.84870000     -74.46770000
H      -44.73690000     -35.97060000     -75.45890000
S      -44.47380000     -35.77890000     -68.26980000
S      -45.97640000     -34.08090000     -74.95340000
C      -44.72540000     -33.98850000     -68.65130000
H      -45.06240000     -33.58640000     -67.69560000
H      -43.77710000     -33.50870000     -68.89380000
C      -46.00690000     -33.06260000     -73.41050000
H      -46.43190000     -33.55730000     -72.55680000
H      -46.57520000     -32.15290000     -73.58680000
C      -44.57510000     -32.69760000     -73.00840000
H      -44.12920000     -33.58640000     -72.49740000
H      -44.01450000     -32.43420000     -73.88960000
C      -45.77130000     -33.79480000     -69.76530000
H      -46.71390000     -34.31290000     -69.47810000
H      -45.34870000     -34.28080000     -70.70910000
C      -45.97160000     -32.24370000     -69.96800000
C      -46.63420000     -31.56190000     -68.97530000
C      -45.36530000     -31.33680000     -70.91350000
H      -47.13270000     -32.03670000     -68.15710000
C      -45.55920000     -30.01190000     -70.52480000
C      -44.57810000     -31.41010000     -72.14980000
C      -44.10960000     -30.18660000     -72.56150000
S      -46.52930000     -29.82040000     -69.05380000
S      -44.79130000     -28.86890000     -71.63910000
H      -43.67900000     -29.99140000     -73.56480000
