40
Properties=species:S:1:pos:R:3 #=T CELL(abcABC):=T 1.889726e+02=T 90.00000=T Traj:=T positionsangstrom=T Step:=T 0=T Bead:=T pbc="F F F"
C      -46.38200000     -36.85710000     -73.04890000
C      -45.06810000     -36.39100000     -73.05010000
C      -44.24730000     -36.44970000     -71.92070000
C      -44.78510000     -36.88160000     -70.72280000
C      -46.13870000     -37.27800000     -70.65530000
C      -46.94970000     -37.24570000     -71.81200000
H      -47.01590000     -36.82650000     -73.96760000
H      -43.27580000     -36.11920000     -72.09170000
H      -46.63850000     -37.58250000     -69.73600000
H      -47.98080000     -37.57170000     -71.84960000
C      -43.87450000     -36.87330000     -69.47250000
H      -42.90260000     -36.75770000     -69.86210000
H      -44.05270000     -37.77180000     -68.88550000
C      -44.37590000     -35.96330000     -74.29450000
H      -43.24840000     -35.79410000     -74.14680000
H      -44.49090000     -36.77730000     -75.12840000
S      -44.15710000     -35.47260000     -68.30620000
S      -45.21230000     -34.41560000     -74.94520000
C      -44.29030000     -33.99270000     -69.50530000
H      -43.58250000     -33.16140000     -69.19610000
H      -43.83010000     -34.36790000     -70.42360000
C      -45.77000000     -33.42370000     -73.49930000
H      -46.27210000     -34.07700000     -72.77140000
H      -46.37550000     -32.69520000     -73.98910000
C      -44.63700000     -32.71620000     -72.81950000
H      -44.18720000     -33.32790000     -72.01380000
H      -43.74160000     -32.59090000     -73.44450000
C      -45.71210000     -33.47070000     -69.71530000
H      -46.37530000     -33.77450000     -68.87440000
H      -46.04020000     -33.99880000     -70.63410000
C      -45.82550000     -31.96620000     -69.72780000
C      -46.14330000     -31.23780000     -68.57910000
C      -45.42940000     -31.10120000     -70.83330000
H      -46.41730000     -31.46280000     -67.54510000
C      -45.64120000     -29.75620000     -70.54770000
C      -45.05160000     -31.33430000     -72.22330000
C      -45.19360000     -30.17200000     -72.96190000
S      -46.28630000     -29.53020000     -69.00370000
S      -45.71250000     -28.77290000     -72.02840000
H      -44.82140000     -30.08980000     -73.92230000
