40
Properties=species:S:1:pos:R:3 #=T CELL(abcABC):=T 1.889726e+02=T 90.00000=T Traj:=T positionsangstrom=T Step:=T 0=T Bead:=T pbc="F F F"
C      -46.37800000     -36.90710000     -72.91230000
C      -45.07340000     -36.38850000     -73.05760000
C      -44.23510000     -36.47060000     -71.97860000
C      -44.71540000     -36.89210000     -70.70660000
C      -46.06130000     -37.26390000     -70.53990000
C      -46.87410000     -37.34440000     -71.68930000
H      -46.98930000     -36.97960000     -73.77580000
H      -43.15730000     -36.27640000     -72.19580000
H      -46.32160000     -37.81310000     -69.63870000
H      -47.90830000     -37.69050000     -71.67200000
C      -43.85990000     -36.91700000     -69.47170000
H      -42.75480000     -37.03770000     -69.69970000
H      -44.12270000     -37.78600000     -68.81340000
C      -44.52400000     -35.86910000     -74.37520000
H      -43.58610000     -35.66750000     -74.07560000
H      -44.47870000     -36.67140000     -75.11070000
S      -44.18590000     -35.38270000     -68.40800000
S      -45.34520000     -34.38890000     -75.08280000
C      -44.32160000     -33.98750000     -69.63640000
H      -43.64990000     -33.18550000     -69.37910000
H      -44.13750000     -34.35880000     -70.60100000
C      -45.79650000     -33.40380000     -73.57750000
H      -46.25200000     -34.09710000     -72.85610000
H      -46.65760000     -32.79070000     -73.95120000
C      -44.64100000     -32.59220000     -72.98880000
H      -44.17460000     -33.25740000     -72.30950000
H      -44.01230000     -32.34530000     -73.82930000
C      -45.81470000     -33.49280000     -69.71550000
H      -46.33940000     -33.82960000     -68.86930000
H      -46.30700000     -33.95270000     -70.56540000
C      -45.96620000     -32.03080000     -69.72720000
C      -46.24450000     -31.26570000     -68.55250000
C      -45.60800000     -31.21440000     -70.87170000
H      -46.66010000     -31.58470000     -67.56640000
C      -45.68680000     -29.81280000     -70.53410000
C      -45.09090000     -31.35300000     -72.22140000
C      -45.03320000     -30.15270000     -72.89530000
S      -46.22970000     -29.55610000     -68.89460000
S      -45.42340000     -28.74960000     -71.86500000
H      -44.71210000     -30.09460000     -73.88040000
