40
Properties=species:S:1:pos:R:3 #=T CELL(abcABC):=T 1.889726e+02=T 90.00000=T Traj:=T positionsangstrom=T Step:=T 0=T Bead:=T pbc="F F F"
C      -46.42230000     -36.74650000     -72.94850000
C      -45.10320000     -36.24080000     -72.90870000
C      -44.31610000     -36.31970000     -71.74610000
C      -44.80970000     -36.82860000     -70.52490000
C      -46.17000000     -37.20880000     -70.55340000
C      -46.93580000     -37.26280000     -71.72880000
H      -47.06160000     -36.61290000     -73.81340000
H      -43.24720000     -35.98160000     -71.75410000
H      -46.63260000     -37.69670000     -69.68770000
H      -48.02800000     -37.56600000     -71.70880000
C      -43.79400000     -36.82070000     -69.36620000
H      -42.75350000     -36.62820000     -69.72450000
H      -43.77880000     -37.70180000     -68.73390000
C      -44.35560000     -35.78930000     -74.10490000
H      -43.41620000     -35.34480000     -73.70240000
H      -44.14290000     -36.67410000     -74.73680000
S      -44.07410000     -35.46810000     -68.03980000
S      -45.29150000     -34.53940000     -75.09920000
C      -44.11490000     -33.92280000     -69.01410000
H      -43.85610000     -33.14680000     -68.31540000
H      -43.37470000     -33.92060000     -69.84990000
C      -45.81380000     -33.26760000     -73.83120000
H      -46.56750000     -33.74280000     -73.14470000
H      -46.19940000     -32.52850000     -74.53710000
C      -44.59880000     -32.74110000     -73.02170000
H      -44.35680000     -33.46180000     -72.25930000
H      -43.76290000     -32.46140000     -73.62770000
C      -45.51930000     -33.53020000     -69.57810000
H      -46.32770000     -33.75280000     -68.94160000
H      -45.67250000     -34.09980000     -70.49360000
C      -45.59050000     -31.99640000     -69.76680000
C      -46.21170000     -31.29530000     -68.75060000
C      -45.44940000     -31.16060000     -70.93010000
H      -46.62990000     -31.82580000     -67.97240000
C      -45.76540000     -29.83140000     -70.73500000
C      -45.03570000     -31.44090000     -72.32240000
C      -45.14190000     -30.29550000     -73.10850000
S      -46.42860000     -29.57860000     -69.15460000
S      -45.72460000     -28.80160000     -72.19800000
H      -45.02650000     -30.25670000     -74.21200000
