40
Properties=species:S:1:pos:R:3 #=T CELL(abcABC):=T 1.889726e+02=T 90.00000=T Traj:=T positionsangstrom=T Step:=T 0=T Bead:=T pbc="F F F"
C      -46.28610000     -37.00990000     -72.99230000
C      -45.05180000     -36.34220000     -73.16440000
C      -44.26770000     -36.25920000     -71.93830000
C      -44.63930000     -36.89080000     -70.73410000
C      -45.84690000     -37.55680000     -70.66320000
C      -46.67600000     -37.66070000     -71.77430000
H      -46.98930000     -36.96210000     -73.84740000
H      -43.26650000     -35.83980000     -71.94460000
H      -46.01330000     -38.07850000     -69.77050000
H      -47.58180000     -38.27650000     -71.60170000
C      -43.70980000     -36.63520000     -69.60720000
H      -42.69060000     -36.27530000     -69.98050000
H      -43.65050000     -37.61680000     -69.06200000
C      -44.61590000     -35.55730000     -74.42090000
H      -43.65660000     -35.06040000     -74.24750000
H      -44.43620000     -36.23070000     -75.24490000
S      -44.21380000     -35.47880000     -68.35510000
S      -45.87360000     -34.28140000     -75.05070000
C      -44.31870000     -33.86700000     -69.23100000
H      -44.10070000     -33.10270000     -68.50420000
H      -43.50300000     -33.83480000     -69.93180000
C      -46.11330000     -33.11490000     -73.62100000
H      -46.66120000     -33.66030000     -72.83530000
H      -46.73740000     -32.32030000     -74.05360000
C      -44.71530000     -32.61470000     -72.99550000
H      -44.25980000     -33.40310000     -72.39930000
H      -44.06810000     -32.49050000     -73.85270000
C      -45.73610000     -33.64060000     -69.81080000
H      -46.52210000     -34.13480000     -69.25840000
H      -45.68630000     -34.05800000     -70.76580000
C      -45.94260000     -32.15090000     -69.90790000
C      -46.55770000     -31.46450000     -68.91230000
C      -45.36090000     -31.21000000     -70.83350000
H      -46.86150000     -31.94160000     -67.98510000
C      -45.55870000     -29.85870000     -70.45740000
C      -44.86040000     -31.30830000     -72.22750000
C      -44.61990000     -30.10320000     -72.78900000
S      -46.49550000     -29.70580000     -68.94590000
S      -45.03700000     -28.72650000     -71.65550000
H      -44.16450000     -29.82310000     -73.74600000
