40
Properties=species:S:1:pos:R:3 #=T CELL(abcABC):=T 1.889726e+02=T 90.00000=T Traj:=T positionsangstrom=T Step:=T 0=T Bead:=T pbc="F F F"
C      -48.08470000     -34.46080000     -68.11410000
C      -47.07260000     -35.09240000     -68.85760000
C      -47.28030000     -35.50410000     -70.14350000
C      -48.52610000     -35.23920000     -70.72690000
C      -49.49690000     -34.43690000     -70.11080000
C      -49.24590000     -34.01680000     -68.81550000
H      -47.91380000     -34.43640000     -67.05110000
H      -46.44100000     -35.93560000     -70.64030000
H      -50.43310000     -34.12690000     -70.62550000
H      -49.84110000     -33.36340000     -68.28240000
C      -48.83190000     -35.86400000     -72.09950000
H      -49.70970000     -35.45510000     -72.55510000
H      -48.98560000     -36.93430000     -71.94840000
C      -45.71380000     -35.40050000     -68.27290000
H      -45.79910000     -36.04380000     -67.45920000
H      -44.97360000     -35.82220000     -68.96690000
S      -47.48360000     -35.71720000     -73.46690000
S      -44.83200000     -33.85010000     -67.57930000
C      -46.53240000     -34.16020000     -72.98470000
H      -46.96370000     -33.26720000     -73.51240000
H      -46.78620000     -34.00680000     -71.91120000
C      -44.68320000     -32.75020000     -69.03450000
H      -43.99330000     -31.96000000     -68.76820000
H      -45.59970000     -32.34420000     -69.35910000
C      -43.84260000     -33.47690000     -70.16100000
H      -43.00960000     -33.97900000     -69.68000000
H      -44.44220000     -34.21380000     -70.63410000
C      -45.09740000     -34.21000000     -73.35640000
H      -44.93390000     -34.82140000     -74.28680000
H      -44.58920000     -34.67210000     -72.52460000
C      -44.32340000     -32.87400000     -73.52720000
C      -44.16880000     -32.19750000     -74.70590000
C      -43.52370000     -32.25680000     -72.48430000
H      -44.68780000     -32.47740000     -75.61770000
C      -42.81420000     -31.11790000     -72.95540000
C      -43.25630000     -32.49810000     -71.09530000
C      -42.33730000     -31.55130000     -70.63540000
S      -43.21080000     -30.73820000     -74.60820000
S      -41.72650000     -30.43180000     -71.83800000
H      -42.05910000     -31.42000000     -69.66070000
