40
Properties=species:S:1:pos:R:3 #=T CELL(abcABC):=T 1.889726e+02=T 90.00000=T Traj:=T positionsangstrom=T Step:=T 0=T Bead:=T pbc="F F F"
C      -45.88320000     -37.43270000     -72.11080000
C      -44.79850000     -36.59660000     -72.52000000
C      -43.92930000     -36.08430000     -71.53010000
C      -43.99780000     -36.49760000     -70.19320000
C      -44.95440000     -37.45710000     -69.79200000
C      -45.85760000     -37.89230000     -70.80260000
H      -46.60280000     -37.77760000     -72.82940000
H      -43.17440000     -35.43510000     -71.86880000
H      -44.87540000     -37.88020000     -68.79070000
H      -46.57700000     -38.65580000     -70.56540000
C      -43.01620000     -35.95470000     -69.18170000
H      -42.13920000     -35.52710000     -69.72950000
H      -42.67380000     -36.73660000     -68.52550000
C      -44.59710000     -36.16120000     -73.98980000
H      -43.65740000     -35.53490000     -74.06470000
H      -44.56970000     -37.11800000     -74.58910000
S      -43.60960000     -34.59480000     -68.04030000
S      -45.85000000     -34.96890000     -74.69850000
C      -44.14620000     -33.19630000     -69.16230000
H      -44.08890000     -32.32720000     -68.52110000
H      -43.33930000     -33.16640000     -69.90840000
C      -46.06720000     -33.68210000     -73.35910000
H      -46.41720000     -34.27370000     -72.41680000
H      -46.90910000     -33.06230000     -73.61290000
C      -44.76440000     -32.87970000     -73.04910000
H      -44.13820000     -33.45440000     -72.40180000
H      -44.09710000     -32.69290000     -73.89280000
C      -45.62190000     -33.40830000     -69.73110000
H      -46.23520000     -33.82240000     -68.92780000
H      -45.52040000     -33.95780000     -70.66160000
C      -46.19080000     -31.98090000     -70.10080000
C      -46.97470000     -31.23410000     -69.25820000
C      -45.84030000     -31.23990000     -71.27710000
H      -47.42960000     -31.59070000     -68.29870000
C      -46.37830000     -29.95080000     -71.35300000
C      -45.03660000     -31.49420000     -72.50340000
C      -44.78050000     -30.31860000     -73.18980000
S      -47.41560000     -29.68390000     -69.95510000
S      -45.64410000     -28.86370000     -72.59630000
H      -44.12180000     -30.09880000     -74.08010000
