40
Properties=species:S:1:pos:R:3 #=T CELL(abcABC):=T 1.889726e+02=T 90.00000=T Traj:=T positionsangstrom=T Step:=T 0=T Bead:=T pbc="F F F"
C      -45.85870000     -37.39420000     -72.27500000
C      -44.77170000     -36.52620000     -72.63710000
C      -43.90960000     -36.08410000     -71.57930000
C      -44.11430000     -36.40300000     -70.24230000
C      -45.26780000     -37.17660000     -69.88440000
C      -46.11720000     -37.65710000     -70.91560000
H      -46.60770000     -37.76080000     -73.02510000
H      -43.10380000     -35.38950000     -71.75380000
H      -45.47470000     -37.36730000     -68.81740000
H      -46.97740000     -38.22380000     -70.63560000
C      -43.04530000     -36.01310000     -69.23630000
H      -42.21300000     -35.58810000     -69.69640000
H      -42.75530000     -36.91430000     -68.61520000
C      -44.60180000     -36.18370000     -74.10640000
H      -43.66080000     -35.66510000     -74.40110000
H      -44.81190000     -37.01590000     -74.70330000
S      -43.75720000     -34.80350000     -68.06170000
S      -45.91380000     -34.85430000     -74.56970000
C      -44.16600000     -33.38260000     -69.07530000
H      -44.02440000     -32.42420000     -68.50940000
H      -43.50320000     -33.22440000     -69.93240000
C      -45.81640000     -33.45450000     -73.44390000
H      -46.23730000     -33.71460000     -72.49170000
H      -46.46640000     -32.75910000     -73.91470000
C      -44.46610000     -32.77020000     -73.10110000
H      -43.84980000     -33.48150000     -72.48770000
H      -43.81230000     -32.63180000     -74.01230000
C      -45.57870000     -33.46080000     -69.62570000
H      -46.23890000     -33.88020000     -68.77220000
H      -45.66860000     -34.23160000     -70.39660000
C      -46.10070000     -32.12340000     -70.08060000
C      -47.03900000     -31.42280000     -69.37610000
C      -45.61830000     -31.31400000     -71.22110000
H      -47.49860000     -31.71630000     -68.41790000
C      -46.16440000     -29.99630000     -71.19920000
C      -44.87480000     -31.46920000     -72.49320000
C      -44.93040000     -30.33730000     -73.28220000
S      -47.26020000     -29.71230000     -69.86860000
S      -45.71240000     -28.87730000     -72.50170000
H      -44.40260000     -30.27630000     -74.28880000
