40
Properties=species:S:1:pos:R:3 #=T CELL(abcABC):=T 1.889726e+02=T 90.00000=T Traj:=T positionsangstrom=T Step:=T 0=T Bead:=T pbc="F F F"
C      -45.52160000     -37.51900000     -71.93130000
C      -44.54950000     -36.61300000     -72.38520000
C      -43.69130000     -36.02590000     -71.44370000
C      -43.86990000     -36.35870000     -70.06850000
C      -44.80840000     -37.28600000     -69.62640000
C      -45.63210000     -37.85260000     -70.59490000
H      -46.10960000     -37.97280000     -72.74170000
H      -42.91770000     -35.29060000     -71.81370000
H      -44.80350000     -37.65690000     -68.60070000
H      -46.37100000     -38.62450000     -70.33880000
C      -42.98400000     -35.69160000     -69.06920000
H      -42.14600000     -35.20330000     -69.55190000
H      -42.57060000     -36.35680000     -68.31310000
C      -44.41710000     -36.25530000     -73.81260000
H      -43.46220000     -35.63050000     -73.97540000
H      -44.31400000     -37.06120000     -74.57250000
S      -43.76130000     -34.38810000     -68.06440000
S      -45.79150000     -35.28320000     -74.57770000
C      -44.36930000     -33.32250000     -69.44940000
H      -43.94670000     -32.29270000     -69.28390000
H      -43.91300000     -33.72730000     -70.37380000
C      -46.04720000     -33.85360000     -73.39640000
H      -46.42980000     -34.29730000     -72.53040000
H      -46.88410000     -33.22060000     -73.80730000
C      -44.80640000     -32.98110000     -73.05250000
H      -44.19330000     -33.50580000     -72.27600000
H      -44.03780000     -32.85040000     -73.86660000
C      -45.91880000     -33.32490000     -69.69280000
H      -46.48310000     -33.62730000     -68.79830000
H      -46.33110000     -33.96700000     -70.43790000
C      -46.36680000     -31.91200000     -70.15390000
C      -46.96350000     -31.05770000     -69.28290000
C      -45.90410000     -31.25810000     -71.35320000
H      -47.15350000     -31.30320000     -68.28080000
C      -46.19920000     -29.92090000     -71.34690000
C      -45.23090000     -31.59400000     -72.60940000
C      -45.12540000     -30.52190000     -73.44520000
S      -47.18930000     -29.43770000     -69.94370000
S      -45.93050000     -29.04020000     -72.84250000
H      -44.73610000     -30.66130000     -74.37490000
