40
Properties=species:S:1:pos:R:3 #=T CELL(abcABC):=T 1.889726e+02=T 90.00000=T Traj:=T positionsangstrom=T Step:=T 0=T Bead:=T pbc="F F F"
C      -42.52270000     -30.94420000     -73.52170000
C      -43.74070000     -31.31220000     -72.91640000
C      -43.94710000     -32.62920000     -72.53040000
C      -42.95980000     -33.58630000     -72.81490000
C      -41.66900000     -33.20720000     -73.41500000
C      -41.45660000     -31.86440000     -73.83000000
H      -42.43690000     -29.91030000     -73.89070000
H      -44.91000000     -32.93450000     -72.04830000
H      -40.90570000     -33.94260000     -73.64230000
H      -40.46590000     -31.62360000     -74.22340000
C      -43.15420000     -35.03310000     -72.39890000
H      -42.57380000     -35.64620000     -72.95730000
H      -44.17230000     -35.44580000     -72.63420000
C      -44.77990000     -30.24170000     -72.62340000
H      -44.55360000     -29.43400000     -73.26520000
H      -45.80630000     -30.48180000     -72.89650000
S      -42.74450000     -35.42560000     -70.63940000
S      -44.71650000     -29.73470000     -70.85170000
C      -43.52620000     -34.15930000     -69.56350000
H      -42.89950000     -33.72140000     -68.69620000
H      -43.69660000     -33.29600000     -70.20060000
C      -46.27300000     -30.40930000     -70.02330000
H      -47.15530000     -30.16980000     -70.66230000
H      -46.43990000     -29.72290000     -69.14670000
C      -46.43120000     -31.86140000     -69.58710000
H      -45.44980000     -32.19540000     -69.34490000
H      -46.91150000     -31.82670000     -68.61280000
C      -44.85060000     -34.62200000     -68.99210000
H      -45.28580000     -33.87870000     -68.37310000
H      -44.74210000     -35.52120000     -68.38310000
C      -45.96590000     -35.08680000     -69.92020000
C      -46.20550000     -36.36810000     -70.34640000
C      -46.93700000     -34.24170000     -70.57330000
H      -45.63920000     -37.17220000     -69.82560000
C      -47.92500000     -34.93410000     -71.25160000
C      -47.23420000     -32.77530000     -70.42900000
C      -48.49810000     -32.59640000     -70.88570000
S      -47.73350000     -36.67080000     -71.19100000
S      -49.21580000     -33.95450000     -71.79030000
H      -49.06030000     -31.63480000     -70.88400000
