40
Properties=species:S:1:pos:R:3 #=T CELL(abcABC):=T 1.889726e+02=T 90.00000=T Traj:=T positionsangstrom=T Step:=T 0=T Bead:=T pbc="F F F"
C      -45.00150000     -37.52230000     -71.80100000
C      -44.16250000     -36.47080000     -72.29000000
C      -43.47550000     -35.65360000     -71.27180000
C      -43.64820000     -35.88690000     -69.89520000
C      -44.48040000     -36.95410000     -69.46560000
C      -45.16540000     -37.66660000     -70.38030000
H      -45.45340000     -38.26720000     -72.42550000
H      -42.68320000     -35.05190000     -71.58990000
H      -44.58660000     -37.07980000     -68.35260000
H      -45.86370000     -38.44800000     -70.07990000
C      -42.82210000     -35.17510000     -68.87570000
H      -42.17610000     -34.38880000     -69.27110000
H      -42.28910000     -35.85610000     -68.34710000
C      -44.03290000     -36.33020000     -73.81060000
H      -43.19230000     -35.71200000     -74.06890000
H      -43.78470000     -37.26610000     -74.29030000
S      -43.74200000     -34.18470000     -67.52970000
S      -45.49540000     -35.75640000     -74.69890000
C      -44.28380000     -32.60500000     -68.38980000
H      -44.73630000     -31.96170000     -67.62970000
H      -43.34350000     -32.16010000     -68.73910000
C      -46.25640000     -34.33410000     -73.76810000
H      -46.75520000     -34.75080000     -72.87020000
H      -46.98490000     -33.83450000     -74.39710000
C      -45.28830000     -33.39410000     -73.19650000
H      -44.69780000     -33.87570000     -72.35680000
H      -44.42750000     -33.16210000     -73.89700000
C      -45.25960000     -32.85940000     -69.50030000
H      -45.99800000     -33.62970000     -69.26800000
H      -44.68630000     -33.42140000     -70.30550000
C      -46.00490000     -31.63980000     -70.09960000
C      -46.43170000     -30.61290000     -69.32370000
C      -46.14770000     -31.33540000     -71.51380000
H      -46.15430000     -30.51360000     -68.26340000
C      -46.62650000     -30.02850000     -71.71980000
C      -45.89520000     -32.02090000     -72.81650000
C      -46.30600000     -31.20960000     -73.87670000
S      -46.94890000     -29.20960000     -70.20160000
S      -46.99780000     -29.69120000     -73.35930000
H      -46.03150000     -31.48600000     -74.86490000
