40
Properties=species:S:1:pos:R:3 #=T CELL(abcABC):=T 1.889726e+02=T 90.00000=T Traj:=T positionsangstrom=T Step:=T 0=T Bead:=T pbc="F F F"
C      -44.51980000     -37.73350000     -70.85470000
C      -43.80060000     -36.71220000     -71.52220000
C      -43.34510000     -35.57510000     -70.75160000
C      -43.45480000     -35.62340000     -69.38590000
C      -44.09840000     -36.71620000     -68.76300000
C      -44.61860000     -37.77160000     -69.47810000
H      -44.73540000     -38.64880000     -71.45580000
H      -42.84590000     -34.75650000     -71.26720000
H      -44.21060000     -36.67060000     -67.64710000
H      -45.30830000     -38.51950000     -69.06230000
C      -42.77820000     -34.61390000     -68.50070000
H      -41.95300000     -34.06540000     -69.06740000
H      -42.37000000     -35.05930000     -67.63940000
C      -43.76520000     -36.60810000     -73.01190000
H      -43.02380000     -35.86260000     -73.30100000
H      -43.32590000     -37.54400000     -73.50580000
S      -43.90640000     -33.28360000     -67.91770000
S      -45.40350000     -36.26360000     -73.80500000
C      -43.68020000     -31.87400000     -69.11670000
H      -43.95170000     -30.87780000     -68.69300000
H      -42.56410000     -31.64630000     -69.26350000
C      -46.08310000     -34.83430000     -72.92940000
H      -45.93870000     -35.12030000     -71.89430000
H      -47.24440000     -34.82920000     -73.08340000
C      -45.41030000     -33.48580000     -73.28570000
H      -44.52090000     -33.30340000     -72.57920000
H      -44.95630000     -33.67440000     -74.23040000
C      -44.36990000     -32.07020000     -70.49360000
H      -44.70830000     -33.05200000     -70.73540000
H      -43.60240000     -31.89700000     -71.24660000
C      -45.44820000     -31.11640000     -70.82160000
C      -45.96210000     -30.09210000     -70.08840000
C      -46.22010000     -31.32230000     -72.06310000
H      -45.51700000     -29.80700000     -69.17120000
C      -47.24040000     -30.34850000     -72.22730000
C      -46.25830000     -32.29270000     -73.11170000
C      -47.13550000     -31.97800000     -74.08030000
S      -47.16850000     -29.20140000     -70.94890000
S      -48.04460000     -30.53820000     -73.75020000
H      -47.41290000     -32.47200000     -75.03910000
