40
Properties=species:S:1:pos:R:3 #=T CELL(abcABC):=T 1.889726e+02=T 90.00000=T Traj:=T positionsangstrom=T Step:=T 0=T Bead:=T pbc="F F F"
C      -44.98990000     -37.44130000     -71.74530000
C      -44.07840000     -36.42660000     -72.18900000
C      -43.39140000     -35.68090000     -71.21670000
C      -43.70420000     -35.84040000     -69.84060000
C      -44.49320000     -36.84210000     -69.37730000
C      -45.14320000     -37.61250000     -70.33440000
H      -45.49520000     -38.02300000     -72.44210000
H      -42.81990000     -34.80970000     -71.47660000
H      -44.55450000     -37.13740000     -68.38240000
H      -45.75170000     -38.45840000     -69.99970000
C      -42.80520000     -35.00130000     -68.91350000
H      -42.18740000     -34.22140000     -69.52060000
H      -42.01230000     -35.63440000     -68.44960000
C      -43.75340000     -36.03970000     -73.60190000
H      -43.27640000     -35.08300000     -73.65940000
H      -43.23640000     -36.88720000     -74.14110000
S      -43.75710000     -34.14810000     -67.56090000
S      -45.35950000     -35.83940000     -74.53770000
C      -44.47410000     -32.63980000     -68.44190000
H      -45.07170000     -32.16820000     -67.66760000
H      -43.65700000     -31.86200000     -68.60810000
C      -46.18890000     -34.56480000     -73.55830000
H      -46.69000000     -35.05740000     -72.74860000
H      -46.96610000     -34.13700000     -74.30490000
C      -45.32220000     -33.38600000     -73.06920000
H      -44.94280000     -33.73180000     -72.12150000
H      -44.46550000     -33.25520000     -73.70650000
C      -45.18330000     -32.90820000     -69.70360000
H      -45.97530000     -33.62230000     -69.50960000
H      -44.50710000     -33.37560000     -70.40500000
C      -45.74390000     -31.58850000     -70.28280000
C      -46.00690000     -30.51310000     -69.47380000
C      -46.19290000     -31.38970000     -71.62250000
H      -45.73480000     -30.40020000     -68.38050000
C      -46.67840000     -30.09950000     -71.80020000
C      -46.06160000     -32.04260000     -72.95830000
C      -46.63270000     -31.30320000     -73.97800000
S      -46.98050000     -29.30670000     -70.26400000
S      -47.24280000     -29.73360000     -73.40000000
H      -46.84700000     -31.60380000     -75.01100000
