40
Properties=species:S:1:pos:R:3 #=T CELL(abcABC):=T 1.889726e+02=T 90.00000=T Traj:=T positionsangstrom=T Step:=T 0=T Bead:=T pbc="F F F"
C      -43.65260000     -30.93790000     -73.71940000
C      -44.63460000     -31.37200000     -72.84250000
C      -44.58400000     -32.72070000     -72.53300000
C      -43.62770000     -33.58840000     -73.06510000
C      -42.56420000     -33.07750000     -73.81080000
C      -42.57880000     -31.73170000     -74.05750000
H      -43.62800000     -29.93060000     -74.06520000
H      -45.39610000     -33.19740000     -71.98510000
H      -41.72250000     -33.70550000     -74.13220000
H      -41.71590000     -31.27350000     -74.52790000
C      -43.64810000     -35.06760000     -72.92150000
H      -43.30270000     -35.62400000     -73.83640000
H      -44.67380000     -35.51440000     -72.82160000
C      -45.61510000     -30.44860000     -72.28930000
H      -45.76500000     -29.66960000     -73.02840000
H      -46.62470000     -30.87180000     -72.20780000
S      -42.59130000     -35.76790000     -71.52480000
S      -45.14070000     -29.52640000     -70.77210000
C      -42.93970000     -34.45230000     -70.21290000
H      -42.02040000     -34.39470000     -69.65220000
H      -43.08050000     -33.50910000     -70.76730000
C      -46.04030000     -30.31720000     -69.34300000
H      -47.12060000     -30.06170000     -69.33860000
H      -45.61180000     -29.82940000     -68.52200000
C      -45.74450000     -31.89510000     -69.37070000
H      -44.81040000     -32.05480000     -69.91940000
H      -45.55750000     -32.19390000     -68.33390000
C      -44.00890000     -34.89380000     -69.21120000
H      -44.06580000     -34.07420000     -68.55850000
H      -43.59560000     -35.80100000     -68.71460000
C      -45.40150000     -35.21590000     -69.81220000
C      -45.74000000     -36.45620000     -70.29640000
C      -46.49720000     -34.24630000     -70.09840000
H      -45.05170000     -37.27620000     -70.14090000
C      -47.56010000     -34.85010000     -70.75400000
C      -46.75490000     -32.78670000     -69.95860000
C      -47.97320000     -32.37290000     -70.54310000
S      -47.36050000     -36.49040000     -71.12540000
S      -48.79300000     -33.73750000     -71.30040000
H      -48.32110000     -31.30130000     -70.50920000
