40
Properties=species:S:1:pos:R:3 #=T CELL(abcABC):=T 1.889726e+02=T 90.00000=T Traj:=T positionsangstrom=T Step:=T 0=T Bead:=T pbc="F F F"
C      -45.21860000     -37.51700000     -71.74070000
C      -44.37560000     -36.49660000     -72.24230000
C      -43.56120000     -35.74070000     -71.33390000
C      -43.61110000     -36.03890000     -69.99640000
C      -44.47990000     -37.05220000     -69.50220000
C      -45.28300000     -37.77940000     -70.40110000
H      -45.92210000     -37.98350000     -72.48710000
H      -43.04970000     -34.82810000     -71.64150000
H      -44.50260000     -37.27440000     -68.39030000
H      -46.06390000     -38.51770000     -70.16710000
C      -42.80250000     -35.20030000     -69.04690000
H      -42.12440000     -34.44530000     -69.53190000
H      -42.11020000     -35.92780000     -68.50610000
C      -44.10240000     -36.21610000     -73.67560000
H      -43.18300000     -35.50520000     -73.81220000
H      -43.73490000     -37.08250000     -74.25200000
S      -43.76520000     -34.37490000     -67.75220000
S      -45.57290000     -35.60660000     -74.63090000
C      -44.26310000     -32.84700000     -68.61450000
H      -44.48060000     -32.00980000     -67.91400000
H      -43.48840000     -32.51050000     -69.29150000
C      -46.16380000     -34.13430000     -73.68010000
H      -46.99750000     -34.45570000     -72.98430000
H      -46.64890000     -33.51220000     -74.36010000
C      -45.06900000     -33.22990000     -73.04680000
H      -44.67530000     -33.69850000     -72.14140000
H      -44.33720000     -33.16880000     -73.81250000
C      -45.55860000     -32.94990000     -69.45740000
H      -46.32910000     -33.20070000     -68.68720000
H      -45.59720000     -33.73110000     -70.18730000
C      -45.97810000     -31.67010000     -70.12230000
C      -46.30610000     -30.64110000     -69.26990000
C      -46.04280000     -31.32360000     -71.53060000
H      -46.32350000     -30.78110000     -68.21580000
C      -46.65320000     -30.08250000     -71.64710000
C      -45.63760000     -31.87820000     -72.77050000
C      -46.06340000     -31.04740000     -73.83770000
S      -47.05540000     -29.28170000     -70.10700000
S      -46.78620000     -29.55310000     -73.32300000
H      -45.83050000     -31.30300000     -74.83000000
