40
Properties=species:S:1:pos:R:3 #=T CELL(abcABC):=T 1.889726e+02=T 90.00000=T Traj:=T positionsangstrom=T Step:=T 0=T Bead:=T pbc="F F F"
C      -43.57550000     -30.79200000     -73.56520000
C      -44.75050000     -31.28080000     -72.96990000
C      -44.79790000     -32.67200000     -72.75380000
C      -43.71560000     -33.50780000     -73.03920000
C      -42.63140000     -32.97040000     -73.76340000
C      -42.52030000     -31.58130000     -74.01530000
H      -43.47850000     -29.77890000     -73.86130000
H      -45.67900000     -33.28800000     -72.42630000
H      -41.95290000     -33.67880000     -74.15460000
H      -41.70140000     -31.12740000     -74.64330000
C      -43.85980000     -35.05640000     -72.67140000
H      -43.77950000     -35.66100000     -73.55140000
H      -44.77000000     -35.24440000     -72.18900000
C      -45.86440000     -30.44340000     -72.37980000
H      -46.23060000     -29.67200000     -73.07750000
H      -46.70610000     -31.06170000     -72.05960000
S      -42.46600000     -35.57340000     -71.55510000
S      -45.13220000     -29.52690000     -70.89540000
C      -42.78260000     -34.50670000     -70.06990000
H      -41.99400000     -34.38890000     -69.32370000
H      -42.91590000     -33.47800000     -70.43440000
C      -45.92540000     -30.40630000     -69.39980000
H      -47.02480000     -30.09860000     -69.38690000
H      -45.50770000     -29.86850000     -68.54960000
C      -45.72960000     -31.94210000     -69.24390000
H      -44.67710000     -32.13240000     -69.50730000
H      -45.84040000     -32.25390000     -68.20530000
C      -44.06600000     -34.95920000     -69.20850000
H      -44.32260000     -34.15340000     -68.49990000
H      -43.72630000     -35.69140000     -68.45310000
C      -45.37200000     -35.28850000     -69.94560000
C      -45.74970000     -36.54340000     -70.37120000
C      -46.40410000     -34.29620000     -70.28930000
H      -45.06490000     -37.36570000     -70.29150000
C      -47.50190000     -34.88680000     -70.89130000
C      -46.58170000     -32.91880000     -70.00770000
C      -47.90100000     -32.52680000     -70.39670000
S      -47.34280000     -36.57120000     -71.14170000
S      -48.83030000     -33.78810000     -71.14440000
H      -48.37440000     -31.57000000     -70.30430000
