40
Properties=species:S:1:pos:R:3 #=T CELL(abcABC):=T 1.889726e+02=T 90.00000=T Traj:=T positionsangstrom=T Step:=T 0=T Bead:=T pbc="F F F"
C      -43.36360000     -30.91460000     -73.57070000
C      -44.39080000     -31.44140000     -72.83270000
C      -44.58070000     -32.85610000     -72.73090000
C      -43.63260000     -33.68870000     -73.34110000
C      -42.61540000     -33.09350000     -74.10160000
C      -42.43100000     -31.72430000     -74.16910000
H      -43.26950000     -29.78910000     -73.57820000
H      -45.27030000     -33.17100000     -72.01880000
H      -41.77950000     -33.71310000     -74.49350000
H      -41.57700000     -31.35480000     -74.71250000
C      -43.68990000     -35.12860000     -72.93040000
H      -43.42420000     -35.75410000     -73.78110000
H      -44.73940000     -35.34490000     -72.68630000
C      -45.55620000     -30.55070000     -72.27340000
H      -45.80180000     -29.84710000     -73.05520000
H      -46.43680000     -31.19070000     -71.99420000
S      -42.80380000     -35.76790000     -71.41320000
S      -45.09570000     -29.57380000     -70.80200000
C      -42.98450000     -34.58310000     -70.01800000
H      -42.01140000     -34.56920000     -69.56400000
H      -43.24340000     -33.61450000     -70.47080000
C      -45.95780000     -30.32090000     -69.39050000
H      -47.00000000     -30.06160000     -69.23160000
H      -45.38970000     -29.91880000     -68.46550000
C      -45.84950000     -31.84220000     -69.17710000
H      -44.84530000     -32.29310000     -69.27480000
H      -46.13120000     -32.02600000     -68.11560000
C      -44.15740000     -34.88530000     -69.06320000
H      -44.45770000     -34.02450000     -68.38900000
H      -43.99040000     -35.75640000     -68.44430000
C      -45.50220000     -35.12800000     -69.85500000
C      -45.73660000     -36.38410000     -70.31860000
C      -46.52180000     -34.17130000     -70.13050000
H      -45.14540000     -37.28550000     -70.15990000
C      -47.52380000     -34.75540000     -70.85660000
C      -46.80120000     -32.73820000     -69.93900000
C      -47.98180000     -32.30770000     -70.51240000
S      -47.25600000     -36.56380000     -71.13950000
S      -48.81230000     -33.56440000     -71.30130000
H      -48.36820000     -31.24110000     -70.32010000
