40
Properties=species:S:1:pos:R:3 #=T CELL(abcABC):=T 1.889726e+02=T 90.00000=T Traj:=T positionsangstrom=T Step:=T 0=T Bead:=T pbc="F F F"
C      -44.88080000     -37.27330000     -71.59040000
C      -43.89680000     -36.40510000     -72.08770000
C      -43.14310000     -35.59400000     -71.13340000
C      -43.40060000     -35.79050000     -69.76970000
C      -44.37030000     -36.67020000     -69.32680000
C      -45.06270000     -37.51980000     -70.22210000
H      -45.45680000     -37.83560000     -72.31800000
H      -42.39680000     -34.90920000     -71.61590000
H      -44.64750000     -36.82210000     -68.27060000
H      -45.82890000     -38.21420000     -69.90130000
C      -42.70300000     -34.99360000     -68.66660000
H      -42.04050000     -34.31110000     -69.09300000
H      -42.21150000     -35.70830000     -67.97190000
C      -43.77400000     -36.24640000     -73.57310000
H      -43.01650000     -35.48200000     -73.78760000
H      -43.34250000     -37.19700000     -73.96080000
S      -43.86920000     -34.17010000     -67.52540000
S      -45.39470000     -35.89170000     -74.46610000
C      -44.38280000     -32.61370000     -68.37240000
H      -45.14250000     -32.27810000     -67.72690000
H      -43.54450000     -31.92380000     -68.32740000
C      -46.17290000     -34.58560000     -73.37570000
H      -46.35560000     -34.97440000     -72.36560000
H      -47.17290000     -34.50140000     -73.80460000
C      -45.25150000     -33.32290000     -73.32200000
H      -44.54350000     -33.44810000     -72.54740000
H      -44.75820000     -33.15930000     -74.31590000
C      -44.93840000     -32.68480000     -69.83600000
H      -45.53760000     -33.63070000     -69.93140000
H      -44.09720000     -32.76120000     -70.53300000
C      -45.76780000     -31.51340000     -70.29080000
C      -46.09230000     -30.43560000     -69.52620000
C      -46.25270000     -31.41420000     -71.67830000
H      -45.86780000     -30.30400000     -68.42350000
C      -46.89260000     -30.19220000     -71.86110000
C      -46.12740000     -32.15900000     -73.02950000
C      -46.75620000     -31.48530000     -74.01810000
S      -46.94370000     -29.15800000     -70.45920000
S      -47.54560000     -29.97130000     -73.48950000
H      -46.73390000     -31.82250000     -75.08830000
