40
Properties=species:S:1:pos:R:3 #=T CELL(abcABC):=T 1.889726e+02=T 90.00000=T Traj:=T positionsangstrom=T Step:=T 0=T Bead:=T pbc="F F F"
C      -47.14890000     -30.81500000     -74.07610000
C      -47.61240000     -31.00270000     -72.77900000
C      -46.79830000     -30.68620000     -71.68490000
C      -45.59180000     -30.03990000     -71.91290000
C      -45.13330000     -29.70150000     -73.22580000
C      -45.89900000     -30.12240000     -74.31010000
H      -47.76650000     -31.15470000     -74.91610000
H      -47.18270000     -31.05160000     -70.69090000
H      -44.23010000     -29.14980000     -73.44190000
H      -45.56380000     -29.96440000     -75.37470000
C      -44.69810000     -29.47770000     -70.79520000
H      -45.17510000     -29.57150000     -69.83870000
H      -44.51490000     -28.47160000     -71.04250000
C      -48.79570000     -31.87320000     -72.49410000
H      -49.46220000     -31.49000000     -71.67450000
H      -49.52810000     -31.92900000     -73.30140000
S      -43.04160000     -30.41440000     -70.75130000
S      -48.36670000     -33.68350000     -72.15660000
C      -43.70210000     -32.03000000     -70.19190000
H      -43.61430000     -32.09510000     -69.12250000
H      -44.79890000     -32.15470000     -70.39700000
C      -46.92110000     -34.03640000     -73.35240000
H      -46.87520000     -33.23300000     -73.99740000
H      -47.26160000     -34.98730000     -73.90090000
C      -45.60810000     -34.12220000     -72.58240000
H      -44.81830000     -34.11270000     -73.33200000
H      -45.47610000     -33.18210000     -72.03300000
C      -42.93150000     -33.19960000     -70.86890000
H      -41.86600000     -33.03360000     -70.94190000
H      -43.22330000     -33.20780000     -71.92690000
C      -43.19520000     -34.54490000     -70.27690000
C      -42.44830000     -35.12860000     -69.27260000
C      -44.34810000     -35.37750000     -70.72040000
H      -41.58760000     -34.79280000     -68.65570000
C      -44.45150000     -36.52270000     -69.88200000
C      -45.52530000     -35.25550000     -71.57450000
C      -46.40060000     -36.30850000     -71.37520000
S      -43.13310000     -36.62700000     -68.77730000
S      -45.90700000     -37.44020000     -70.10820000
H      -47.38230000     -36.33860000     -71.78270000
