40
Properties=species:S:1:pos:R:3 #=T CELL(abcABC):=T 1.889726e+02=T 90.00000=T Traj:=T positionsangstrom=T Step:=T 0=T Bead:=T pbc="F F F"
C      -43.93450000     -37.54500000     -70.30940000
C      -43.60670000     -36.44520000     -71.09470000
C      -43.07400000     -35.30350000     -70.47810000
C      -42.98410000     -35.20180000     -69.06590000
C      -43.27330000     -36.37490000     -68.33820000
C      -43.71900000     -37.54440000     -68.95240000
H      -44.41460000     -38.43520000     -70.81710000
H      -42.68780000     -34.44490000     -71.06620000
H      -43.23110000     -36.43640000     -67.29710000
H      -44.03050000     -38.32460000     -68.28400000
C      -42.70840000     -33.96700000     -68.21470000
H      -41.63060000     -33.65610000     -68.19780000
H      -42.90940000     -34.12340000     -67.14290000
C      -43.72660000     -36.52870000     -72.56830000
H      -43.23670000     -35.65920000     -73.10990000
H      -43.37550000     -37.51600000     -72.96630000
S      -43.56390000     -32.29030000     -68.57010000
S      -45.44600000     -36.51340000     -73.12720000
C      -43.16270000     -31.90390000     -70.36590000
H      -42.84330000     -30.85210000     -70.54690000
H      -42.25250000     -32.60010000     -70.63360000
C      -46.28130000     -34.89510000     -72.70740000
H      -45.95480000     -34.57410000     -71.69730000
H      -47.34860000     -35.15670000     -72.65200000
C      -45.99880000     -33.76770000     -73.76310000
H      -44.89550000     -33.68030000     -73.70390000
H      -46.21500000     -34.17810000     -74.72710000
C      -44.25610000     -32.30380000     -71.40510000
H      -44.48570000     -33.36150000     -71.22020000
H      -43.71840000     -32.28710000     -72.40870000
C      -45.48980000     -31.46010000     -71.43990000
C      -45.79590000     -30.54490000     -70.50080000
C      -46.55060000     -31.61190000     -72.42210000
H      -45.06810000     -30.18760000     -69.79970000
C      -47.54720000     -30.62480000     -72.29210000
C      -46.83230000     -32.56850000     -73.45460000
C      -48.07780000     -32.28630000     -74.04180000
S      -47.20420000     -29.61420000     -70.85140000
S      -48.78740000     -30.81050000     -73.45580000
H      -48.60410000     -32.88870000     -74.82000000
