40
Properties=species:S:1:pos:R:3 #=T CELL(abcABC):=T 1.889726e+02=T 90.00000=T Traj:=T positionsangstrom=T Step:=T 0=T Bead:=T pbc="F F F"
C      -44.27780000     -37.22060000     -69.73370000
C      -43.61300000     -36.53160000     -70.77390000
C      -43.03650000     -35.30410000     -70.50410000
C      -43.08530000     -34.74420000     -69.24640000
C      -43.65560000     -35.47850000     -68.21970000
C      -44.20440000     -36.72160000     -68.43580000
H      -44.52930000     -38.27040000     -69.95020000
H      -42.52470000     -34.83880000     -71.35580000
H      -43.61670000     -35.17620000     -67.17850000
H      -44.60910000     -37.38690000     -67.64080000
C      -42.35490000     -33.39200000     -68.86880000
H      -41.38660000     -33.40100000     -69.44170000
H      -42.16370000     -33.42890000     -67.81030000
C      -43.60390000     -37.18840000     -72.13200000
H      -42.76030000     -36.83700000     -72.78920000
H      -43.54060000     -38.23850000     -72.04830000
S      -43.13550000     -31.75320000     -69.06680000
S      -45.26400000     -36.85820000     -72.96510000
C      -42.96540000     -31.05510000     -70.78300000
H      -43.07690000     -29.98910000     -70.73830000
H      -42.02570000     -31.33570000     -71.14410000
C      -45.87490000     -35.21710000     -72.49930000
H      -45.36180000     -34.83020000     -71.66410000
H      -46.90620000     -35.23600000     -72.18450000
C      -45.88790000     -34.10560000     -73.57720000
H      -44.92860000     -33.68470000     -73.64680000
H      -46.09070000     -34.38720000     -74.58700000
C      -43.99650000     -31.75510000     -71.79650000
H      -43.98470000     -32.81910000     -71.75470000
H      -43.73390000     -31.47840000     -72.80540000
C      -45.47650000     -31.29740000     -71.63080000
C      -45.78220000     -30.08720000     -71.07210000
C      -46.58220000     -31.86210000     -72.38650000
H      -45.08940000     -29.40420000     -70.65000000
C      -47.78970000     -31.06580000     -72.17410000
C      -46.84380000     -33.01340000     -73.19220000
C      -48.15730000     -33.03740000     -73.67800000
S      -47.44060000     -29.67930000     -71.20460000
S      -49.15820000     -31.73050000     -73.01860000
H      -48.66650000     -33.84800000     -74.19920000
