40
Properties=species:S:1:pos:R:3 #=T CELL(abcABC):=T 1.889726e+02=T 90.00000=T Traj:=T positionsangstrom=T Step:=T 0=T Bead:=T pbc="F F F"
C      -44.38500000     -36.32610000     -69.57440000
C      -43.82400000     -36.07190000     -70.86480000
C      -42.75040000     -35.16350000     -70.97550000
C      -42.51340000     -34.33520000     -69.90860000
C      -43.10920000     -34.48410000     -68.63300000
C      -44.11440000     -35.45870000     -68.52980000
H      -45.11620000     -37.01830000     -69.52430000
H      -42.31020000     -34.93460000     -71.89120000
H      -42.92720000     -33.75460000     -67.86090000
H      -44.56450000     -35.50990000     -67.62210000
C      -41.47830000     -33.28080000     -70.07270000
H      -40.90150000     -33.53570000     -70.97840000
H      -40.80220000     -33.23300000     -69.17690000
C      -44.10840000     -36.96530000     -72.06430000
H      -43.94070000     -36.58230000     -73.00800000
H      -43.61790000     -37.95980000     -71.99750000
S      -42.33410000     -31.62180000     -70.14830000
S      -45.97580000     -37.30710000     -72.05720000
C      -42.79680000     -31.46950000     -71.93960000
H      -42.82220000     -30.40180000     -72.06800000
H      -42.02330000     -31.81270000     -72.53440000
C      -46.75900000     -35.63090000     -71.86730000
H      -46.49110000     -35.15000000     -70.91690000
H      -47.89760000     -35.72000000     -71.89730000
C      -46.39680000     -34.63170000     -72.99580000
H      -45.33140000     -34.46250000     -73.05570000
H      -46.72550000     -34.95280000     -73.96110000
C      -44.11680000     -32.14810000     -72.47680000
H      -44.16770000     -33.25810000     -72.31430000
H      -44.09510000     -32.10730000     -73.56710000
C      -45.43500000     -31.46860000     -72.05770000
C      -45.54700000     -30.16250000     -71.65740000
C      -46.71020000     -32.14810000     -72.10810000
H      -44.59750000     -29.54770000     -71.59280000
C      -47.70600000     -31.27300000     -71.68060000
C      -47.20400000     -33.40470000     -72.60980000
C      -48.55760000     -33.43100000     -72.50840000
S      -47.20830000     -29.64210000     -71.24970000
S      -49.27900000     -31.91950000     -71.96030000
H      -49.19240000     -34.30470000     -72.63850000
