40
Properties=species:S:1:pos:R:3 #=T CELL(abcABC):=T 1.889726e+02=T 90.00000=T Traj:=T positionsangstrom=T Step:=T 0=T Bead:=T pbc="F F F"
C      -48.91790000     -30.98330000     -70.70780000
C      -48.33520000     -32.21200000     -70.60820000
C      -48.24520000     -33.06800000     -71.69200000
C      -48.58620000     -32.57530000     -72.95430000
C      -49.01300000     -31.24850000     -73.10130000
C      -49.27600000     -30.44240000     -71.95940000
H      -49.06400000     -30.33980000     -69.86380000
H      -47.74980000     -34.08160000     -71.65180000
H      -49.27760000     -30.86000000     -74.08090000
H      -49.38200000     -29.43290000     -72.07070000
C      -48.36140000     -33.33060000     -74.27990000
H      -47.89940000     -32.78020000     -75.05370000
H      -49.29880000     -33.59260000     -74.77420000
C      -47.85810000     -32.72670000     -69.19330000
H      -48.74020000     -32.80810000     -68.43280000
H      -47.29710000     -33.63610000     -69.32920000
S      -47.49510000     -34.99110000     -74.01660000
S      -46.79600000     -31.46260000     -68.43190000
C      -45.74440000     -34.41320000     -73.82910000
H      -45.12120000     -35.21580000     -74.24170000
H      -45.63750000     -33.50640000     -74.36940000
C      -45.11750000     -31.92290000     -69.08100000
H      -44.40630000     -31.40630000     -68.51380000
H      -44.93120000     -31.55710000     -70.10620000
C      -44.84270000     -33.50210000     -69.09880000
H      -45.03460000     -33.89580000     -68.09960000
H      -45.54730000     -33.88510000     -69.84090000
C      -45.24710000     -34.09890000     -72.39630000
H      -45.66700000     -34.83860000     -71.67990000
H      -45.52030000     -33.03870000     -72.04860000
C      -43.73400000     -34.22780000     -72.25870000
C      -42.87260000     -34.61940000     -73.24460000
C      -43.04740000     -34.13800000     -70.94080000
H      -43.08710000     -34.59210000     -74.27300000
C      -41.69370000     -34.47790000     -71.05400000
C      -43.44500000     -33.74540000     -69.52930000
C      -42.36540000     -33.92200000     -68.69140000
S      -41.26010000     -34.91330000     -72.70280000
S      -40.84820000     -34.35360000     -69.49790000
H      -42.34970000     -33.75440000     -67.58150000
