40
Properties=species:S:1:pos:R:3 #=T CELL(abcABC):=T 1.889726e+02=T 90.00000=T Traj:=T positionsangstrom=T Step:=T 0=T Bead:=T pbc="F F F"
C      -44.34370000     -36.34080000     -69.49540000
C      -43.79020000     -36.06490000     -70.74400000
C      -42.79410000     -35.06510000     -70.85740000
C      -42.56390000     -34.21370000     -69.74560000
C      -43.25300000     -34.45820000     -68.53050000
C      -44.11600000     -35.51010000     -68.38000000
H      -45.11630000     -37.13720000     -69.33500000
H      -42.10370000     -34.79240000     -71.76820000
H      -43.28010000     -33.67950000     -67.75200000
H      -44.80660000     -35.69250000     -67.55290000
C      -41.55450000     -33.13200000     -69.84470000
H      -40.78990000     -33.31750000     -70.64850000
H      -41.00700000     -33.13420000     -68.94440000
C      -44.05790000     -36.78500000     -72.07420000
H      -43.63760000     -36.12140000     -72.87170000
H      -43.43930000     -37.62450000     -72.13100000
S      -42.41330000     -31.47620000     -70.27470000
S      -45.76660000     -37.30410000     -72.45780000
C      -42.80790000     -31.79340000     -72.08310000
H      -42.74130000     -30.84420000     -72.60300000
H      -42.00580000     -32.44810000     -72.42150000
C      -46.72530000     -35.79290000     -72.04430000
H      -46.41530000     -35.47410000     -71.03410000
H      -47.68090000     -36.17290000     -71.95410000
C      -46.69670000     -34.64120000     -73.10330000
H      -45.64420000     -34.45190000     -73.31280000
H      -47.07280000     -35.07860000     -74.01620000
C      -44.14590000     -32.48120000     -72.19170000
H      -44.09600000     -33.40900000     -71.66460000
H      -44.30600000     -32.77830000     -73.25640000
C      -45.40350000     -31.80770000     -71.73340000
C      -45.38640000     -30.51780000     -71.17650000
C      -46.78530000     -32.22460000     -72.03290000
H      -44.54970000     -29.95190000     -70.92760000
C      -47.70830000     -31.18700000     -71.72320000
C      -47.42470000     -33.42390000     -72.62910000
C      -48.78680000     -33.21430000     -72.75990000
S      -46.95380000     -29.72300000     -71.02070000
S      -49.32970000     -31.63360000     -72.21570000
H      -49.54330000     -33.84810000     -73.19890000
