40
Properties=species:S:1:pos:R:3 #=T CELL(abcABC):=T 1.889726e+02=T 90.00000=T Traj:=T positionsangstrom=T Step:=T 0=T Bead:=T pbc="F F F"
C      -49.10610000     -30.22180000     -71.09600000
C      -48.61310000     -31.48720000     -70.73150000
C      -48.37400000     -32.44600000     -71.73390000
C      -48.35160000     -32.10550000     -73.09300000
C      -48.81610000     -30.82890000     -73.46160000
C      -49.24140000     -29.90990000     -72.44300000
H      -49.40080000     -29.49310000     -70.30320000
H      -48.00200000     -33.48520000     -71.45040000
H      -48.91510000     -30.42940000     -74.50750000
H      -49.48780000     -28.90140000     -72.80540000
C      -47.81090000     -32.93010000     -74.24990000
H      -46.97000000     -32.36640000     -74.63390000
H      -48.53350000     -33.01450000     -75.07810000
C      -48.47400000     -31.92430000     -69.22720000
H      -49.17190000     -31.43900000     -68.58370000
H      -48.67770000     -32.95250000     -69.14010000
S      -47.37380000     -34.69010000     -73.97450000
S      -46.72340000     -31.57200000     -68.61050000
C      -45.51730000     -34.75210000     -73.88810000
H      -45.39340000     -35.76680000     -74.23780000
H      -45.14970000     -34.11230000     -74.69340000
C      -45.58030000     -32.51770000     -69.69690000
H      -44.79950000     -31.94970000     -70.12410000
H      -46.06840000     -32.98310000     -70.57190000
C      -44.86870000     -33.73310000     -68.92020000
H      -44.95120000     -33.58470000     -67.77300000
H      -45.50470000     -34.66200000     -68.92640000
C      -44.96200000     -34.25560000     -72.52540000
H      -45.61440000     -34.61220000     -71.73320000
H      -45.22920000     -33.16370000     -72.56970000
C      -43.60980000     -34.58800000     -72.13540000
C      -42.70750000     -35.06050000     -73.03070000
C      -43.10750000     -34.47370000     -70.80380000
H      -43.04720000     -35.47340000     -73.96400000
C      -41.76060000     -34.82080000     -70.76560000
C      -43.52730000     -34.08990000     -69.42810000
C      -42.52540000     -34.16630000     -68.51850000
S      -41.16170000     -35.36410000     -72.31950000
S      -41.00140000     -34.62550000     -69.24140000
H      -42.53260000     -33.93810000     -67.48220000
