40
Properties=species:S:1:pos:R:3 #=T CELL(abcABC):=T 1.889726e+02=T 90.00000=T Traj:=T positionsangstrom=T Step:=T 0=T Bead:=T pbc="F F F"
C      -47.15340000     -30.78300000     -74.26490000
C      -47.53290000     -31.23340000     -72.95170000
C      -46.77510000     -30.79010000     -71.85090000
C      -45.66490000     -29.98620000     -72.08400000
C      -45.26850000     -29.55880000     -73.33480000
C      -46.06890000     -29.94780000     -74.38720000
H      -47.78300000     -31.05920000     -75.13050000
H      -47.13880000     -31.02900000     -70.87100000
H      -44.38660000     -29.03730000     -73.54520000
H      -45.86470000     -29.65090000     -75.39630000
C      -44.90750000     -29.53540000     -70.82260000
H      -45.40180000     -29.61900000     -69.87950000
H      -44.63500000     -28.47400000     -70.84790000
C      -48.78540000     -32.08920000     -72.98790000
H      -49.57020000     -31.63390000     -72.33240000
H      -49.29410000     -32.12600000     -74.03960000
S      -43.22860000     -30.40110000     -70.73850000
S      -48.57220000     -33.80480000     -72.26280000
C      -43.70170000     -32.04060000     -70.05790000
H      -43.55420000     -32.14540000     -68.98620000
H      -44.75080000     -32.16710000     -70.21920000
C      -47.03460000     -34.30950000     -73.15950000
H      -47.19140000     -33.78160000     -74.12720000
H      -47.21860000     -35.29700000     -73.49400000
C      -45.70260000     -34.23770000     -72.53680000
H      -44.93620000     -34.04620000     -73.26240000
H      -45.51260000     -33.34390000     -71.91340000
C      -42.89590000     -33.03430000     -70.81090000
H      -41.87140000     -32.78330000     -70.75490000
H      -43.15750000     -32.96430000     -71.85010000
C      -43.11240000     -34.47540000     -70.27250000
C      -42.41750000     -34.96670000     -69.21250000
C      -44.20520000     -35.38550000     -70.62860000
H      -41.56950000     -34.43850000     -68.76010000
C      -44.27570000     -36.44400000     -69.75830000
C      -45.31350000     -35.34620000     -71.52670000
C      -46.18900000     -36.35210000     -71.32010000
S      -42.97620000     -36.42720000     -68.56790000
S      -45.73110000     -37.42260000     -69.97100000
H      -47.02690000     -36.56730000     -71.95290000
