40
Properties=species:S:1:pos:R:3 #=T CELL(abcABC):=T 1.889726e+02=T 90.00000=T Traj:=T positionsangstrom=T Step:=T 0=T Bead:=T pbc="F F F"
C      -44.00810000     -36.51980000     -69.24220000
C      -43.50330000     -36.28700000     -70.55380000
C      -42.68090000     -35.13270000     -70.89690000
C      -42.37520000     -34.22420000     -69.87330000
C      -42.88740000     -34.49840000     -68.54310000
C      -43.68000000     -35.58880000     -68.26790000
H      -44.56140000     -37.47520000     -68.99540000
H      -42.38560000     -34.85640000     -71.90180000
H      -42.62570000     -33.84970000     -67.76290000
H      -44.08050000     -35.78720000     -67.22500000
C      -41.62730000     -32.94710000     -70.07810000
H      -40.89420000     -33.04780000     -70.93920000
H      -40.97440000     -32.62620000     -69.19240000
C      -43.86920000     -37.34040000     -71.56490000
H      -43.16120000     -37.61170000     -72.37390000
H      -43.97030000     -38.28170000     -71.05380000
S      -42.72590000     -31.51230000     -70.54210000
S      -45.45680000     -37.01720000     -72.44990000
C      -42.98030000     -31.78120000     -72.33810000
H      -42.77390000     -30.81700000     -72.84900000
H      -42.22220000     -32.53270000     -72.72300000
C      -46.21500000     -35.50020000     -71.68220000
H      -45.40790000     -34.93720000     -71.24260000
H      -46.91440000     -35.74510000     -70.80390000
C      -46.98800000     -34.70890000     -72.74910000
H      -46.16000000     -34.40340000     -73.45300000
H      -47.64560000     -35.42580000     -73.20460000
C      -44.31840000     -32.43550000     -72.69740000
H      -44.17630000     -33.44760000     -72.38610000
H      -44.35760000     -32.47700000     -73.81140000
C      -45.59860000     -31.66880000     -72.25130000
C      -45.51990000     -30.39810000     -71.79580000
C      -47.00460000     -32.14350000     -72.17370000
H      -44.62990000     -29.80330000     -71.91760000
C      -47.86260000     -31.12250000     -71.75010000
C      -47.65330000     -33.41030000     -72.36570000
C      -48.98790000     -33.35620000     -72.14630000
S      -47.02030000     -29.65630000     -71.44480000
S      -49.53240000     -31.75390000     -71.64370000
H      -49.59700000     -34.22040000     -72.13760000
