40
Properties=species:S:1:pos:R:3 #=T CELL(abcABC):=T 1.889726e+02=T 90.00000=T Traj:=T positionsangstrom=T Step:=T 0=T Bead:=T pbc="F F F"
C      -46.69710000     -30.09310000     -70.06830000
C      -46.13260000     -30.02500000     -71.36120000
C      -46.79070000     -30.66520000     -72.43640000
C      -48.05050000     -31.29700000     -72.26090000
C      -48.57780000     -31.33600000     -70.92720000
C      -47.88350000     -30.76610000     -69.85080000
H      -46.27970000     -29.62130000     -69.23600000
H      -46.28370000     -30.76050000     -73.39180000
H      -49.58990000     -31.74840000     -70.82050000
H      -48.35960000     -30.81430000     -68.84160000
C      -48.74380000     -31.92370000     -73.44930000
H      -48.88810000     -31.05880000     -74.11590000
H      -49.78590000     -32.38080000     -73.21720000
C      -44.74400000     -29.37400000     -71.52180000
H      -44.72130000     -28.52100000     -72.16700000
H      -44.51610000     -28.96950000     -70.56800000
S      -47.65170000     -33.24390000     -74.28570000
S      -43.43650000     -30.55650000     -72.02030000
C      -47.12410000     -34.49390000     -73.00840000
H      -47.89030000     -34.92440000     -72.41240000
H      -46.71620000     -35.29180000     -73.73550000
C      -43.58210000     -32.00230000     -70.90140000
H      -44.54960000     -32.43660000     -70.66590000
H      -43.26040000     -31.72750000     -69.88300000
C      -42.74330000     -33.08780000     -71.47780000
H      -42.94890000     -33.22370000     -72.58400000
H      -41.74650000     -32.74710000     -71.30860000
C      -46.06450000     -34.01410000     -72.00840000
H      -46.49320000     -33.26210000     -71.34310000
H      -45.21220000     -33.68790000     -72.58230000
C      -45.47380000     -35.19520000     -71.15690000
C      -46.26050000     -36.19430000     -70.70990000
C      -44.09130000     -35.25040000     -70.63770000
H      -47.29340000     -36.40270000     -70.89220000
C      -43.86120000     -36.42660000     -69.96510000
C      -42.89810000     -34.41700000     -70.77600000
C      -41.79190000     -34.95430000     -70.17920000
S      -45.34450000     -37.35520000     -69.76830000
S      -42.24210000     -36.46890000     -69.24740000
H      -40.95700000     -34.39230000     -69.77240000
