40
Properties=species:S:1:pos:R:3 #=T CELL(abcABC):=T 1.889726e+02=T 90.00000=T Traj:=T positionsangstrom=T Step:=T 0=T Bead:=T pbc="F F F"
C      -46.75630000     -31.66760000     -73.82980000
C      -47.33580000     -31.32380000     -72.62430000
C      -48.23900000     -32.23450000     -72.04280000
C      -48.45320000     -33.50080000     -72.51090000
C      -47.77600000     -33.88730000     -73.69190000
C      -46.98690000     -32.95520000     -74.38280000
H      -46.13420000     -30.97620000     -74.29340000
H      -48.65420000     -31.92750000     -71.12580000
H      -47.84070000     -34.93720000     -74.00790000
H      -46.59610000     -33.12700000     -75.37080000
C      -49.47560000     -34.42290000     -71.83580000
H      -50.18490000     -34.79630000     -72.54690000
H      -50.04370000     -33.82510000     -71.06740000
C      -46.93430000     -30.09350000     -71.82570000
H      -47.58270000     -29.24810000     -71.86030000
H      -46.90590000     -30.39110000     -70.68690000
S      -48.53550000     -35.78340000     -70.88290000
S      -45.26770000     -29.39720000     -72.31080000
C      -47.39420000     -34.73720000     -69.89060000
H      -47.94450000     -33.79660000     -69.69740000
H      -47.23410000     -35.22130000     -68.92970000
C      -44.17030000     -30.71580000     -71.38280000
H      -44.62070000     -30.96860000     -70.45000000
H      -43.19240000     -30.19730000     -71.20320000
C      -44.01930000     -32.02740000     -72.16400000
H      -44.97240000     -32.49010000     -72.28500000
H      -43.51280000     -31.87340000     -73.15070000
C      -46.16510000     -34.25710000     -70.66500000
H      -46.11130000     -33.13580000     -70.74510000
H      -46.23360000     -34.61980000     -71.64140000
C      -44.76280000     -34.74960000     -70.23970000
C      -44.52950000     -35.76060000     -69.28360000
C      -43.49390000     -34.06010000     -70.55140000
H      -45.29880000     -36.42720000     -68.90460000
C      -42.42530000     -34.68560000     -69.96080000
C      -43.09350000     -32.99310000     -71.40910000
C      -41.70040000     -32.82720000     -71.45900000
S      -42.85410000     -36.12200000     -69.00120000
S      -40.91970000     -34.05050000     -70.40650000
H      -41.13120000     -32.12500000     -72.06760000
