40
Properties=species:S:1:pos:R:3 #=T CELL(abcABC):=T 1.889726e+02=T 90.00000=T Traj:=T positionsangstrom=T Step:=T 0=T Bead:=T pbc="F F F"
C      -47.15430000     -30.73030000     -74.52370000
C      -47.54490000     -31.29400000     -73.28940000
C      -46.96090000     -30.82130000     -72.08480000
C      -45.85480000     -29.90600000     -72.18730000
C      -45.41580000     -29.47410000     -73.39000000
C      -45.99880000     -29.92400000     -74.56030000
H      -47.60830000     -31.02100000     -75.43320000
H      -47.44040000     -31.09340000     -71.15310000
H      -44.47950000     -28.85580000     -73.32960000
H      -45.63910000     -29.61750000     -75.57340000
C      -45.13090000     -29.40270000     -70.94580000
H      -45.71650000     -29.62900000     -70.05910000
H      -45.05680000     -28.31450000     -70.91250000
C      -48.75240000     -32.24370000     -73.16760000
H      -49.64870000     -31.72350000     -72.70230000
H      -48.93290000     -32.49260000     -74.24370000
S      -43.55210000     -30.27270000     -70.83410000
S      -48.33070000     -33.81480000     -72.16550000
C      -43.87980000     -31.79130000     -69.98790000
H      -43.62560000     -31.71500000     -68.93830000
H      -44.94630000     -31.82340000     -70.05270000
C      -46.91120000     -34.44190000     -73.21640000
H      -46.80070000     -33.77580000     -74.06160000
H      -47.30230000     -35.41510000     -73.56570000
C      -45.59190000     -34.33880000     -72.43490000
H      -44.76300000     -34.36080000     -73.16460000
H      -45.62050000     -33.40490000     -71.95680000
C      -43.10840000     -32.94840000     -70.63000000
H      -42.02790000     -32.70370000     -70.51910000
H      -43.39490000     -32.97640000     -71.69480000
C      -43.28680000     -34.33190000     -70.02960000
C      -42.34650000     -34.84090000     -69.16380000
C      -44.32530000     -35.28800000     -70.32800000
H      -41.48330000     -34.31740000     -68.82750000
C      -44.27100000     -36.41940000     -69.53150000
C      -45.36450000     -35.39020000     -71.34430000
C      -46.00150000     -36.65340000     -71.32470000
S      -42.79640000     -36.47700000     -68.57110000
S      -45.47720000     -37.59160000     -69.88560000
H      -46.89930000     -37.01660000     -71.79280000
