40
Properties=species:S:1:pos:R:3 #=T CELL(abcABC):=T 1.889726e+02=T 90.00000=T Traj:=T positionsangstrom=T Step:=T 0=T Bead:=T pbc="F F F"
C      -47.02620000     -31.63060000     -74.12470000
C      -47.39600000     -31.29850000     -72.77480000
C      -48.14730000     -32.22980000     -72.06880000
C      -48.51690000     -33.51480000     -72.58780000
C      -48.12250000     -33.79540000     -73.88480000
C      -47.39450000     -32.86110000     -74.65100000
H      -46.52630000     -30.81260000     -74.70810000
H      -48.58080000     -31.89620000     -71.11070000
H      -48.31710000     -34.77310000     -74.31310000
H      -46.97740000     -33.29040000     -75.62140000
C      -49.33850000     -34.39760000     -71.67730000
H      -50.18820000     -34.81170000     -72.23110000
H      -49.61540000     -33.98020000     -70.70400000
C      -47.04860000     -29.92400000     -72.11050000
H      -47.56310000     -29.10850000     -72.79750000
H      -47.50330000     -29.87310000     -71.14140000
S      -48.24030000     -35.84240000     -71.18230000
S      -45.27130000     -29.44810000     -72.04520000
C      -47.26570000     -34.97990000     -69.77150000
H      -48.02840000     -34.47430000     -69.20320000
H      -46.85980000     -35.81190000     -69.17470000
C      -44.49760000     -30.81550000     -71.04590000
H      -45.08670000     -31.00850000     -70.13120000
H      -43.55200000     -30.52410000     -70.64620000
C      -44.22500000     -32.04050000     -71.98730000
H      -45.16860000     -32.60560000     -72.37350000
H      -43.78190000     -31.70270000     -72.96500000
C      -46.03780000     -34.17870000     -70.17670000
H      -45.99490000     -33.21850000     -69.68280000
H      -46.09450000     -33.94940000     -71.28950000
C      -44.63630000     -34.70100000     -69.86980000
C      -44.39360000     -35.71630000     -68.95290000
C      -43.47010000     -34.13550000     -70.51510000
H      -45.16520000     -36.30060000     -68.36940000
C      -42.32220000     -34.76460000     -70.06990000
C      -43.21450000     -32.94040000     -71.32950000
C      -41.89810000     -32.85830000     -71.64430000
S      -42.64960000     -36.09440000     -68.88200000
S      -40.88080000     -34.01000000     -70.72860000
H      -41.43270000     -32.00140000     -72.08500000
