40
Properties=species:S:1:pos:R:3 #=T CELL(abcABC):=T 1.889726e+02=T 90.00000=T Traj:=T positionsangstrom=T Step:=T 0=T Bead:=T pbc="F F F"
C      -46.79460000     -31.71750000     -73.87100000
C      -47.27480000     -31.36630000     -72.64570000
C      -48.10410000     -32.29060000     -71.97520000
C      -48.48480000     -33.52780000     -72.51140000
C      -48.02040000     -33.84140000     -73.79210000
C      -47.20030000     -32.96280000     -74.47300000
H      -46.10590000     -31.02690000     -74.37290000
H      -48.55810000     -31.99400000     -71.00870000
H      -48.41560000     -34.70280000     -74.30790000
H      -46.93010000     -33.14200000     -75.57670000
C      -49.36830000     -34.52840000     -71.79520000
H      -50.05750000     -34.96480000     -72.50030000
H      -50.01950000     -34.05190000     -71.06080000
C      -47.03150000     -29.96850000     -72.10700000
H      -47.58450000     -29.25840000     -72.69020000
H      -47.30860000     -29.91080000     -71.05840000
S      -48.39640000     -35.84560000     -71.01400000
S      -45.26180000     -29.38530000     -72.15870000
C      -47.30020000     -34.97150000     -69.77150000
H      -47.93280000     -34.29280000     -69.23330000
H      -47.05020000     -35.77090000     -69.05460000
C      -44.25400000     -30.58500000     -71.25580000
H      -44.68410000     -30.77430000     -70.26690000
H      -43.28000000     -30.06200000     -71.20870000
C      -44.06850000     -31.97300000     -72.06300000
H      -45.04370000     -32.41190000     -72.24090000
H      -43.71730000     -31.72330000     -73.01000000
C      -46.15450000     -34.26840000     -70.44050000
H      -46.33590000     -33.19690000     -70.32670000
H      -46.33690000     -34.40550000     -71.51990000
C      -44.75520000     -34.65910000     -70.09870000
C      -44.48650000     -35.70930000     -69.23780000
C      -43.50000000     -33.99480000     -70.46780000
H      -45.34430000     -36.35100000     -68.91590000
C      -42.39150000     -34.65450000     -69.94240000
C      -43.12450000     -32.91350000     -71.36380000
C      -41.74240000     -32.83650000     -71.50710000
S      -42.80930000     -36.04120000     -68.93570000
S      -40.92630000     -34.12420000     -70.63820000
H      -41.21140000     -32.22030000     -72.19820000
