40
Properties=species:S:1:pos:R:3 #=T CELL(abcABC):=T 1.889726e+02=T 90.00000=T Traj:=T positionsangstrom=T Step:=T 0=T Bead:=T pbc="F F F"
C      -43.85480000     -36.50780000     -69.08530000
C      -43.49200000     -36.39930000     -70.43650000
C      -42.60790000     -35.34020000     -70.84040000
C      -42.22960000     -34.35130000     -69.89880000
C      -42.67290000     -34.43470000     -68.55600000
C      -43.47610000     -35.52000000     -68.17590000
H      -44.53850000     -37.26600000     -68.76030000
H      -42.41540000     -35.28180000     -71.89300000
H      -42.47940000     -33.79850000     -67.67640000
H      -43.71170000     -35.74990000     -67.19570000
C      -41.45260000     -33.10400000     -70.33490000
H      -40.80930000     -33.27370000     -71.18630000
H      -40.74830000     -32.77660000     -69.57990000
C      -43.86020000     -37.37580000     -71.45950000
H      -43.13410000     -37.55580000     -72.23410000
H      -44.02460000     -38.35920000     -70.96970000
S      -42.47930000     -31.53640000     -70.52600000
S      -45.35480000     -36.91330000     -72.43750000
C      -43.09240000     -31.66590000     -72.30930000
H      -43.11670000     -30.66750000     -72.77300000
H      -42.26160000     -32.08130000     -72.88790000
C      -46.26450000     -35.43970000     -71.68080000
H      -45.55640000     -34.73670000     -71.13590000
H      -47.02710000     -35.76860000     -71.02180000
C      -46.81310000     -34.65800000     -72.89390000
H      -45.93130000     -34.35520000     -73.51620000
H      -47.37370000     -35.40380000     -73.53860000
C      -44.49700000     -32.35420000     -72.58180000
H      -44.51300000     -33.39560000     -72.20330000
H      -44.63300000     -32.44160000     -73.64840000
C      -45.70770000     -31.60780000     -72.07120000
C      -45.71670000     -30.27950000     -71.67190000
C      -47.07380000     -32.13790000     -72.12660000
H      -44.91400000     -29.67890000     -71.51920000
C      -48.01440000     -31.17390000     -71.75940000
C      -47.63190000     -33.43780000     -72.48620000
C      -49.04300000     -33.37720000     -72.33110000
S      -47.33940000     -29.65570000     -71.36380000
S      -49.64600000     -31.81740000     -71.83840000
H      -49.76500000     -34.08990000     -72.74990000
