40
Properties=species:S:1:pos:R:3 #=T CELL(abcABC):=T 1.889726e+02=T 90.00000=T Traj:=T positionsangstrom=T Step:=T 0=T Bead:=T pbc="F F F"
C      -46.95920000     -31.65190000     -74.20170000
C      -47.39610000     -31.17260000     -72.96480000
C      -48.27750000     -31.97890000     -72.22440000
C      -48.62440000     -33.28800000     -72.63610000
C      -48.04280000     -33.76460000     -73.84270000
C      -47.34380000     -32.89720000     -74.64560000
H      -46.41440000     -30.98170000     -74.82690000
H      -48.59740000     -31.70370000     -71.24510000
H      -48.12830000     -34.74050000     -74.30920000
H      -46.86980000     -33.29540000     -75.57830000
C      -49.45170000     -34.12590000     -71.73230000
H      -50.24380000     -34.57240000     -72.24080000
H      -49.79400000     -33.49870000     -70.89390000
C      -46.90990000     -29.83550000     -72.33470000
H      -47.13200000     -28.94720000     -72.93990000
H      -47.25270000     -29.68420000     -71.26660000
S      -48.53780000     -35.44670000     -70.82810000
S      -45.03160000     -29.57670000     -72.44020000
C      -47.30650000     -34.35210000     -69.94410000
H      -47.65820000     -33.36630000     -69.69160000
H      -47.10290000     -34.84650000     -68.94790000
C      -44.25280000     -30.81200000     -71.26630000
H      -45.03100000     -30.98880000     -70.52390000
H      -43.49510000     -30.28630000     -70.67330000
C      -43.60550000     -32.04890000     -72.03330000
H      -44.43360000     -32.56600000     -72.45020000
H      -42.90700000     -31.67540000     -72.76580000
C      -46.00000000     -34.12460000     -70.73250000
H      -45.92730000     -33.03750000     -70.82080000
H      -46.18260000     -34.39570000     -71.74240000
C      -44.73440000     -34.76230000     -70.17460000
C      -44.71790000     -35.85620000     -69.33820000
C      -43.44800000     -34.20960000     -70.38750000
H      -45.65280000     -36.40010000     -69.04530000
C      -42.43550000     -35.00500000     -69.74720000
C      -42.85710000     -33.05360000     -71.10220000
C      -41.51040000     -33.08110000     -71.04920000
S      -43.11700000     -36.34290000     -68.92630000
S      -40.84630000     -34.40190000     -70.13660000
H      -40.84940000     -32.36100000     -71.43350000
