40
Properties=species:S:1:pos:R:3 #=T CELL(abcABC):=T 1.889726e+02=T 90.00000=T Traj:=T positionsangstrom=T Step:=T 0=T Bead:=T pbc="F F F"
C      -46.83910000     -31.62150000     -74.26160000
C      -47.09480000     -31.27530000     -72.94510000
C      -48.05450000     -31.95430000     -72.17830000
C      -48.58830000     -33.19240000     -72.60270000
C      -48.25380000     -33.62820000     -73.82920000
C      -47.41590000     -32.84860000     -74.69290000
H      -46.29700000     -31.09600000     -75.01150000
H      -48.18250000     -31.68530000     -71.14230000
H      -48.50520000     -34.63250000     -74.05530000
H      -47.05420000     -33.25460000     -75.61940000
C      -49.57210000     -33.94540000     -71.69930000
H      -50.46490000     -34.42950000     -72.19290000
H      -49.93070000     -33.22180000     -70.94860000
C      -46.55090000     -29.89890000     -72.46970000
H      -46.96240000     -29.19240000     -73.19820000
H      -46.86590000     -29.56770000     -71.43680000
S      -48.75950000     -35.40070000     -70.85620000
S      -44.74580000     -29.57690000     -72.56860000
C      -47.40250000     -34.57470000     -69.92770000
H      -47.79230000     -33.56240000     -69.68400000
H      -47.31390000     -35.16480000     -68.93520000
C      -43.87070000     -30.88890000     -71.51840000
H      -44.41530000     -30.79080000     -70.51430000
H      -42.86050000     -30.52810000     -71.31820000
C      -43.79880000     -32.25870000     -72.09070000
H      -44.78240000     -32.65300000     -72.26690000
H      -43.29140000     -32.33130000     -72.96960000
C      -46.10230000     -34.25800000     -70.75860000
H      -46.05890000     -33.17760000     -70.85600000
H      -46.13930000     -34.61430000     -71.75680000
C      -44.84110000     -34.78280000     -70.17490000
C      -44.80260000     -35.90360000     -69.37390000
C      -43.50180000     -34.24240000     -70.37660000
H      -45.57140000     -36.43770000     -68.89910000
C      -42.50550000     -34.97610000     -69.71580000
C      -42.98900000     -33.14590000     -71.11520000
C      -41.61840000     -33.05830000     -71.05060000
S      -43.12480000     -36.31590000     -68.76760000
S      -40.93590000     -34.27390000     -69.95510000
H      -40.97080000     -32.22850000     -71.37920000
