40
Properties=species:S:1:pos:R:3 #=T CELL(abcABC):=T 1.889726e+02=T 90.00000=T Traj:=T positionsangstrom=T Step:=T 0=T Bead:=T pbc="F F F"
C      -47.23630000     -30.93880000     -74.55450000
C      -47.76080000     -31.25310000     -73.26440000
C      -47.12900000     -30.66430000     -72.18080000
C      -45.98940000     -29.82360000     -72.26660000
C      -45.57880000     -29.45120000     -73.57230000
C      -46.15870000     -30.08670000     -74.67950000
H      -47.72580000     -31.32480000     -75.47630000
H      -47.38380000     -31.15240000     -71.19870000
H      -44.73050000     -28.70700000     -73.71090000
H      -45.97900000     -29.81290000     -75.73210000
C      -45.22690000     -29.37990000     -71.09320000
H      -45.77960000     -29.39370000     -70.16360000
H      -44.79730000     -28.42490000     -71.27740000
C      -48.87320000     -32.21080000     -73.10950000
H      -49.63760000     -31.70490000     -72.46890000
H      -49.37140000     -32.45840000     -73.99990000
S      -43.67610000     -30.30760000     -70.64210000
S      -48.35900000     -33.81520000     -72.35490000
C      -44.05630000     -32.00960000     -69.97400000
H      -44.05470000     -32.06570000     -68.86190000
H      -45.05380000     -32.32550000     -70.36230000
C      -46.78950000     -34.47220000     -73.19410000
H      -46.72470000     -33.92900000     -74.14750000
H      -47.05400000     -35.49790000     -73.58890000
C      -45.49550000     -34.37970000     -72.40070000
H      -44.60850000     -34.54730000     -73.07160000
H      -45.28550000     -33.34180000     -72.26300000
C      -42.94250000     -32.91550000     -70.53020000
H      -41.94990000     -32.54370000     -70.35120000
H      -42.98300000     -33.03090000     -71.64260000
C      -43.15780000     -34.29170000     -69.97060000
C      -42.39960000     -34.76270000     -68.95240000
C      -44.05430000     -35.31400000     -70.44830000
H      -41.85800000     -34.12280000     -68.25060000
C      -43.97200000     -36.50510000     -69.70400000
C      -45.26490000     -35.31190000     -71.26210000
C      -46.02270000     -36.46520000     -71.06090000
S      -42.74690000     -36.37550000     -68.44400000
S      -45.28160000     -37.63000000     -69.97930000
H      -46.87600000     -36.80370000     -71.62950000
