40
Properties=species:S:1:pos:R:3 #=T CELL(abcABC):=T 1.889726e+02=T 90.00000=T Traj:=T positionsangstrom=T Step:=T 0=T Bead:=T pbc="F F F"
C      -47.30260000     -35.84060000     -72.77850000
C      -47.50620000     -35.53390000     -71.42230000
C      -46.52350000     -36.06110000     -70.53910000
C      -45.43470000     -36.82240000     -70.91540000
C      -45.22200000     -36.96960000     -72.29880000
C      -46.16000000     -36.47780000     -73.20980000
H      -48.08060000     -35.50670000     -73.43450000
H      -46.56080000     -35.73080000     -69.44240000
H      -44.39480000     -37.54960000     -72.67830000
H      -46.10860000     -36.63500000     -74.26570000
C      -44.55790000     -37.40640000     -69.85050000
H      -43.82550000     -38.20030000     -70.19600000
H      -45.18350000     -37.79450000     -69.05160000
C      -48.67810000     -34.81290000     -70.87630000
H      -49.52700000     -35.47040000     -70.61920000
H      -48.35150000     -34.37560000     -69.90590000
S      -43.38310000     -36.26920000     -68.96010000
S      -49.34690000     -33.50790000     -72.03750000
C      -42.89170000     -34.87350000     -70.09040000
H      -42.02000000     -34.51080000     -69.55440000
H      -42.54370000     -35.33120000     -71.01260000
C      -48.14760000     -32.19910000     -72.26850000
H      -48.58530000     -31.20530000     -72.20930000
H      -47.86850000     -32.28980000     -73.28860000
C      -46.83630000     -32.41970000     -71.53660000
H      -46.98350000     -32.20480000     -70.46190000
H      -46.53950000     -33.45200000     -71.73250000
C      -44.01670000     -33.80540000     -70.34010000
H      -44.72900000     -33.86820000     -69.51090000
H      -44.66610000     -34.06750000     -71.17450000
C      -43.58810000     -32.40280000     -70.65310000
C      -42.36440000     -31.85930000     -70.35660000
C      -44.39920000     -31.40390000     -71.38780000
H      -41.55140000     -32.33720000     -69.86250000
C      -43.81150000     -30.21030000     -71.66780000
C      -45.78190000     -31.40780000     -71.89340000
C      -46.10430000     -30.24470000     -72.60960000
S      -42.20740000     -30.20510000     -70.94140000
S      -44.58440000     -29.22570000     -72.82680000
H      -47.05580000     -29.98680000     -73.01160000
