40
Properties=species:S:1:pos:R:3 #=T CELL(abcABC):=T 1.889726e+02=T 90.00000=T Traj:=T positionsangstrom=T Step:=T 0=T Bead:=T pbc="F F F"
C      -46.73790000     -31.86180000     -74.71960000
C      -46.86050000     -31.03200000     -73.56480000
C      -47.49470000     -31.52150000     -72.40320000
C      -48.25040000     -32.68240000     -72.48790000
C      -48.14880000     -33.51550000     -73.65910000
C      -47.34100000     -33.18910000     -74.75800000
H      -46.14750000     -31.59240000     -75.63660000
H      -47.54490000     -30.93160000     -71.49510000
H      -48.58990000     -34.49300000     -73.63540000
H      -47.52890000     -33.69830000     -75.75090000
C      -49.10130000     -33.04310000     -71.27740000
H      -50.19090000     -32.83910000     -71.49820000
H      -48.62440000     -32.54380000     -70.36670000
C      -46.02050000     -29.74570000     -73.30150000
H      -46.20400000     -29.12410000     -74.17250000
H      -46.40980000     -29.31120000     -72.38240000
S      -49.01820000     -34.96130000     -71.04790000
S      -44.13470000     -29.95550000     -73.12210000
C      -47.55300000     -35.35090000     -70.01780000
H      -47.67420000     -35.08410000     -68.95850000
H      -47.40790000     -36.40780000     -70.11180000
C      -44.03260000     -31.02710000     -71.61670000
H      -44.80350000     -30.72690000     -70.85390000
H      -43.09160000     -30.92290000     -71.05110000
C      -44.21250000     -32.51960000     -71.94000000
H      -45.24310000     -32.71010000     -71.79190000
H      -43.92850000     -32.79290000     -72.94280000
C      -46.37030000     -34.52070000     -70.36620000
H      -46.52610000     -33.47680000     -70.12970000
H      -46.17600000     -34.65160000     -71.44490000
C      -45.06620000     -35.05870000     -69.74930000
C      -44.89420000     -36.05750000     -68.82150000
C      -43.81320000     -34.43350000     -70.13910000
H      -45.64640000     -36.63880000     -68.36490000
C      -42.74990000     -34.93550000     -69.43930000
C      -43.35820000     -33.35290000     -71.03200000
C      -41.99730000     -33.21950000     -71.08190000
S      -43.16260000     -36.17800000     -68.27840000
S      -41.18110000     -34.18720000     -69.84830000
H      -41.54900000     -32.39920000     -71.69170000
