40
Properties=species:S:1:pos:R:3 #=T CELL(abcABC):=T 1.889726e+02=T 90.00000=T Traj:=T positionsangstrom=T Step:=T 0=T Bead:=T pbc="F F F"
C      -46.61830000     -31.75120000     -74.44170000
C      -46.75850000     -31.02840000     -73.23120000
C      -47.58070000     -31.57400000     -72.25900000
C      -48.25690000     -32.79270000     -72.47630000
C      -48.15120000     -33.49430000     -73.69160000
C      -47.22860000     -32.98560000     -74.63840000
H      -45.81700000     -31.44200000     -75.12470000
H      -47.71230000     -31.12320000     -71.30050000
H      -48.72560000     -34.33180000     -73.88220000
H      -46.96100000     -33.71420000     -75.41460000
C      -49.14340000     -33.47040000     -71.37760000
H      -50.14950000     -33.19320000     -71.64880000
H      -49.07980000     -32.86930000     -70.47580000
C      -46.08380000     -29.69260000     -73.23910000
H      -46.34780000     -29.13860000     -74.07740000
H      -46.41400000     -28.98120000     -72.44290000
S      -49.06830000     -35.25970000     -71.03340000
S      -44.26990000     -29.81890000     -73.04730000
C      -47.55110000     -35.23380000     -69.92960000
H      -47.79870000     -34.73620000     -68.97110000
H      -47.38040000     -36.30570000     -69.69000000
C      -44.22300000     -31.09990000     -71.68240000
H      -45.08970000     -30.94260000     -71.01430000
H      -43.37330000     -30.71970000     -71.10920000
C      -44.16070000     -32.57030000     -72.02220000
H      -45.18220000     -33.01590000     -72.03370000
H      -43.78340000     -32.72690000     -73.10980000
C      -46.34650000     -34.62480000     -70.57360000
H      -46.53360000     -33.53120000     -70.64930000
H      -46.25150000     -35.01310000     -71.57600000
C      -45.02340000     -34.93060000     -69.89360000
C      -44.83270000     -35.89440000     -68.90190000
C      -43.73970000     -34.31920000     -70.14980000
H      -45.63560000     -36.51940000     -68.48000000
C      -42.68890000     -34.90280000     -69.50310000
C      -43.25190000     -33.34340000     -71.12290000
C      -41.88270000     -33.13060000     -71.04090000
S      -43.19140000     -36.10520000     -68.38510000
S      -41.13750000     -34.17100000     -69.89430000
H      -41.34480000     -32.44380000     -71.64520000
