40
Properties=species:S:1:pos:R:3 #=T CELL(abcABC):=T 1.889726e+02=T 90.00000=T Traj:=T positionsangstrom=T Step:=T 0=T Bead:=T pbc="F F F"
C      -46.64440000     -31.82090000     -74.40560000
C      -46.91950000     -31.10440000     -73.19030000
C      -47.90350000     -31.63300000     -72.35040000
C      -48.32240000     -32.96350000     -72.46190000
C      -48.02650000     -33.66940000     -73.65530000
C      -47.20180000     -33.05450000     -74.60430000
H      -46.11620000     -31.24250000     -75.13950000
H      -48.23360000     -31.01830000     -71.50040000
H      -48.53360000     -34.64360000     -73.73330000
H      -47.03220000     -33.63930000     -75.46900000
C      -49.28650000     -33.50800000     -71.47980000
H      -50.26640000     -33.52690000     -71.99040000
H      -49.33440000     -33.05160000     -70.49500000
C      -46.38530000     -29.76090000     -72.86020000
H      -46.78350000     -29.11800000     -73.66790000
H      -46.69740000     -29.44680000     -71.83070000
S      -48.97750000     -35.19530000     -71.02100000
S      -44.57220000     -29.70110000     -72.94100000
C      -47.45280000     -35.17680000     -69.93890000
H      -47.70680000     -34.51690000     -69.11160000
H      -47.33640000     -36.22640000     -69.55310000
C      -44.03220000     -30.92080000     -71.60000000
H      -44.80130000     -30.91040000     -70.83700000
H      -43.09860000     -30.52540000     -71.21050000
C      -43.82210000     -32.35300000     -72.13330000
H      -44.77860000     -32.68200000     -72.44020000
H      -43.28570000     -32.29780000     -73.05410000
C      -46.21650000     -34.77950000     -70.69710000
H      -46.28310000     -33.67750000     -70.86120000
H      -46.31880000     -35.14790000     -71.72360000
C      -44.90510000     -34.96940000     -70.00720000
C      -44.81260000     -35.86660000     -68.91930000
C      -43.64980000     -34.38510000     -70.30760000
H      -45.69270000     -36.40570000     -68.51040000
C      -42.64230000     -34.92070000     -69.55320000
C      -43.15830000     -33.35550000     -71.20580000
C      -41.77340000     -33.18380000     -71.12660000
S      -43.16180000     -36.06040000     -68.39920000
S      -41.09670000     -34.18300000     -69.87310000
H      -41.17070000     -32.51790000     -71.68500000
