40
Properties=species:S:1:pos:R:3 #=T CELL(abcABC):=T 1.889726e+02=T 90.00000=T Traj:=T positionsangstrom=T Step:=T 0=T Bead:=T pbc="F F F"
C      -46.46680000     -32.29570000     -74.73900000
C      -46.52760000     -31.39780000     -73.69400000
C      -47.44010000     -31.56180000     -72.64320000
C      -48.41910000     -32.56500000     -72.71790000
C      -48.40100000     -33.45320000     -73.81750000
C      -47.40200000     -33.32410000     -74.77310000
H      -45.78800000     -32.20220000     -75.57060000
H      -47.59930000     -30.75750000     -71.93790000
H      -49.28090000     -34.10850000     -73.95650000
H      -47.32680000     -34.07300000     -75.58250000
C      -49.35640000     -32.73390000     -71.51690000
H      -50.37830000     -32.76530000     -71.94560000
H      -49.22280000     -31.84970000     -70.83400000
C      -45.73470000     -30.19420000     -73.58310000
H      -45.94300000     -29.51580000     -74.38360000
H      -46.01960000     -29.56520000     -72.69690000
S      -49.22340000     -34.34320000     -70.63360000
S      -43.99770000     -30.45440000     -73.58090000
C      -47.58000000     -34.41190000     -69.90370000
H      -47.47770000     -33.54940000     -69.21450000
H      -47.63300000     -35.19460000     -69.16610000
C      -43.76510000     -31.54490000     -72.02230000
H      -44.52680000     -31.30110000     -71.31400000
H      -42.84300000     -31.14500000     -71.77170000
C      -43.80810000     -33.06680000     -72.29890000
H      -44.87880000     -33.40490000     -72.34840000
H      -43.32600000     -33.22560000     -73.24190000
C      -46.29890000     -34.61630000     -70.74060000
H      -46.27690000     -33.81760000     -71.49020000
H      -46.38320000     -35.51980000     -71.37350000
C      -45.08940000     -34.78430000     -69.79940000
C      -45.19920000     -35.35390000     -68.58440000
C      -43.73430000     -34.40040000     -70.05940000
H      -46.07950000     -35.45630000     -67.96490000
C      -42.80690000     -34.78860000     -69.07020000
C      -43.03780000     -33.72710000     -71.14220000
C      -41.68910000     -33.71890000     -71.00120000
S      -43.63000000     -35.58300000     -67.80610000
S      -41.15690000     -34.55740000     -69.49410000
H      -40.87870000     -33.44620000     -71.72450000
