40
Properties=species:S:1:pos:R:3 #=T CELL(abcABC):=T 1.889726e+02=T 90.00000=T Traj:=T positionsangstrom=T Step:=T 0=T Bead:=T pbc="F F F"
C      -46.39020000     -32.03520000     -74.44740000
C      -46.65000000     -31.10380000     -73.47450000
C      -47.74690000     -31.37720000     -72.57980000
C      -48.48740000     -32.54880000     -72.65580000
C      -48.18310000     -33.44570000     -73.69850000
C      -47.17930000     -33.16220000     -74.67400000
H      -45.65320000     -31.84870000     -75.18350000
H      -47.94330000     -30.63660000     -71.84540000
H      -48.80770000     -34.27220000     -73.93840000
H      -46.88910000     -33.94010000     -75.32750000
C      -49.54590000     -32.88320000     -71.51860000
H      -50.53190000     -33.01220000     -71.98670000
H      -49.43750000     -32.14680000     -70.68410000
C      -45.82070000     -29.82400000     -73.35140000
H      -46.17530000     -29.13380000     -74.15520000
H      -46.04890000     -29.37660000     -72.36510000
S      -49.27220000     -34.60960000     -70.79640000
S      -43.97750000     -30.14930000     -73.53700000
C      -47.66390000     -34.73250000     -69.90000000
H      -47.84930000     -34.29190000     -68.89070000
H      -47.58500000     -35.80250000     -69.76220000
C      -43.69020000     -31.20550000     -72.05320000
H      -44.44210000     -30.79410000     -71.30610000
H      -42.71790000     -30.95400000     -71.54840000
C      -43.64510000     -32.73480000     -72.30780000
H      -44.62890000     -33.07130000     -72.59290000
H      -43.03480000     -32.91970000     -73.24870000
C      -46.30240000     -34.26720000     -70.49220000
H      -46.13780000     -33.21870000     -70.37700000
H      -46.32890000     -34.39330000     -71.59860000
C      -45.10580000     -34.92640000     -69.80060000
C      -45.14340000     -35.81560000     -68.72590000
C      -43.74130000     -34.46790000     -70.16690000
H      -45.96680000     -36.31080000     -68.19600000
C      -42.83030000     -35.05600000     -69.29810000
C      -43.08250000     -33.58150000     -71.11770000
C      -41.75270000     -33.56870000     -70.90970000
S      -43.49690000     -36.12690000     -68.05260000
S      -41.20330000     -34.55760000     -69.53980000
H      -41.09020000     -33.02630000     -71.57280000
