40
Properties=species:S:1:pos:R:3 #=T CELL(abcABC):=T 1.889726e+02=T 90.00000=T Traj:=T positionsangstrom=T Step:=T 0=T Bead:=T pbc="F F F"
C      -46.50710000     -32.70960000     -74.92700000
C      -46.37590000     -31.71210000     -73.91660000
C      -47.26810000     -31.71620000     -72.79510000
C      -48.29960000     -32.70440000     -72.67890000
C      -48.38370000     -33.64510000     -73.68320000
C      -47.52720000     -33.68520000     -74.77020000
H      -45.92150000     -32.61200000     -75.82710000
H      -47.05860000     -30.95100000     -71.99540000
H      -49.11700000     -34.43060000     -73.67440000
H      -47.65440000     -34.41070000     -75.62400000
C      -49.23540000     -32.81580000     -71.48450000
H      -50.30060000     -32.86090000     -71.83120000
H      -49.11260000     -32.01700000     -70.73520000
C      -45.38960000     -30.59090000     -74.12420000
H      -45.64470000     -30.00840000     -75.02580000
H      -45.45060000     -29.78030000     -73.40160000
S      -49.14480000     -34.41870000     -70.54960000
S      -43.67580000     -31.23270000     -74.24710000
C      -47.84540000     -34.06360000     -69.42770000
H      -48.16070000     -33.34770000     -68.68750000
H      -47.72460000     -34.94990000     -68.83300000
C      -43.62780000     -31.85120000     -72.47780000
H      -44.29580000     -31.24080000     -71.83290000
H      -42.54960000     -31.67960000     -72.21920000
C      -43.99980000     -33.27440000     -72.39230000
H      -45.09680000     -33.30620000     -72.23660000
H      -43.73420000     -33.88760000     -73.30970000
C      -46.52090000     -33.79430000     -70.14730000
H      -46.46750000     -32.81360000     -70.61570000
H      -46.49610000     -34.40010000     -70.97150000
C      -45.22530000     -33.99590000     -69.28420000
C      -45.23270000     -34.43790000     -67.98770000
C      -43.89260000     -34.06720000     -69.87290000
H      -46.05620000     -34.46590000     -67.29870000
C      -42.95810000     -34.44840000     -68.97040000
C      -43.27790000     -33.84640000     -71.19360000
C      -41.91120000     -34.04020000     -71.21230000
S      -43.60900000     -34.98410000     -67.40140000
S      -41.30530000     -34.49670000     -69.61350000
H      -41.10670000     -33.99300000     -72.02430000
