40
Properties=species:S:1:pos:R:3 #=T CELL(abcABC):=T 1.889726e+02=T 90.00000=T Traj:=T positionsangstrom=T Step:=T 0=T Bead:=T pbc="F F F"
C      -46.62750000     -32.65340000     -74.94360000
C      -46.44580000     -31.70480000     -73.93080000
C      -47.22360000     -31.77950000     -72.75640000
C      -48.26770000     -32.76400000     -72.75410000
C      -48.39770000     -33.72340000     -73.70030000
C      -47.61500000     -33.66210000     -74.82490000
H      -45.89430000     -32.67650000     -75.71960000
H      -47.05650000     -31.07230000     -71.96090000
H      -49.09110000     -34.61220000     -73.59330000
H      -47.61880000     -34.51100000     -75.50720000
C      -49.16570000     -32.76590000     -71.46030000
H      -50.16510000     -32.52870000     -71.67900000
H      -48.80660000     -31.99600000     -70.80570000
C      -45.48610000     -30.57890000     -74.25200000
H      -45.54360000     -30.46540000     -75.36770000
H      -45.76700000     -29.67810000     -73.72750000
S      -49.07890000     -34.40940000     -70.67970000
S      -43.63350000     -30.98590000     -74.09080000
C      -47.81810000     -34.07100000     -69.31740000
H      -48.12940000     -33.27780000     -68.65090000
H      -47.68050000     -35.06850000     -68.79400000
C      -43.52440000     -31.70210000     -72.46950000
H      -43.99880000     -31.11580000     -71.69060000
H      -42.52990000     -31.71840000     -72.22410000
C      -43.97440000     -33.15830000     -72.32910000
H      -45.00550000     -33.23820000     -72.26500000
H      -43.63220000     -33.69300000     -73.20180000
C      -46.49790000     -33.64330000     -69.97240000
H      -46.43670000     -32.52120000     -69.90790000
H      -46.45420000     -33.97950000     -71.05360000
C      -45.30970000     -34.21190000     -69.28920000
C      -45.17000000     -34.75290000     -68.00880000
C      -43.96380000     -34.24010000     -69.89950000
H      -46.10080000     -34.94440000     -67.47510000
C      -42.97830000     -34.63080000     -69.00470000
C      -43.35940000     -33.83400000     -71.17960000
C      -41.98400000     -33.96400000     -71.18490000
S      -43.57240000     -35.01430000     -67.39640000
S      -41.34870000     -34.56930000     -69.68490000
H      -41.32810000     -33.67320000     -72.05790000
