40
Properties=species:S:1:pos:R:3 #=T CELL(abcABC):=T 1.889726e+02=T 90.00000=T Traj:=T positionsangstrom=T Step:=T 0=T Bead:=T pbc="F F F"
C      -46.63930000     -32.44960000     -75.04670000
C      -46.60040000     -31.42510000     -74.05550000
C      -47.49970000     -31.44590000     -73.01030000
C      -48.22210000     -32.58350000     -72.69400000
C      -48.17870000     -33.67040000     -73.61070000
C      -47.34180000     -33.62310000     -74.71600000
H      -45.96120000     -32.35430000     -75.86420000
H      -47.49590000     -30.60180000     -72.32670000
H      -48.69530000     -34.55860000     -73.32750000
H      -47.22680000     -34.54030000     -75.34280000
C      -49.14860000     -32.75620000     -71.51080000
H      -50.09010000     -32.78400000     -71.96410000
H      -49.07720000     -31.97060000     -70.79840000
C      -45.64250000     -30.26830000     -74.18960000
H      -45.63680000     -29.72210000     -75.09190000
H      -45.91800000     -29.41050000     -73.53320000
S      -49.15020000     -34.36180000     -70.63600000
S      -43.84900000     -30.84000000     -73.93060000
C      -47.70020000     -34.28610000     -69.48480000
H      -47.99000000     -33.57540000     -68.68290000
H      -47.71440000     -35.23830000     -68.97710000
C      -43.69350000     -31.43710000     -72.15250000
H      -44.43360000     -30.94680000     -71.57640000
H      -42.68830000     -31.13260000     -71.87120000
C      -43.78270000     -33.05230000     -72.22730000
H      -44.82760000     -33.39740000     -72.48030000
H      -43.23320000     -33.22990000     -73.18590000
C      -46.40610000     -33.87290000     -70.15760000
H      -46.35990000     -32.79830000     -70.35590000
H      -46.31520000     -34.24160000     -71.17770000
C      -45.17250000     -34.34620000     -69.44570000
C      -45.22390000     -34.99470000     -68.22680000
C      -43.83430000     -34.18020000     -69.90240000
H      -46.12240000     -35.04430000     -67.56960000
C      -42.93860000     -34.78140000     -69.02490000
C      -43.13470000     -33.75500000     -71.09010000
C      -41.75530000     -33.92880000     -70.96960000
S      -43.65110000     -35.33610000     -67.55710000
S      -41.33040000     -34.85660000     -69.63390000
H      -41.06030000     -33.72420000     -71.71630000
