40
Properties=species:S:1:pos:R:3 #=T CELL(abcABC):=T 1.889726e+02=T 90.00000=T Traj:=T positionsangstrom=T Step:=T 0=T Bead:=T pbc="F F F"
C      -46.66180000     -32.12680000     -74.69470000
C      -46.52550000     -31.37140000     -73.50140000
C      -47.45760000     -31.52980000     -72.46110000
C      -48.42530000     -32.60110000     -72.47340000
C      -48.38520000     -33.39600000     -73.65590000
C      -47.50450000     -33.21540000     -74.70600000
H      -45.90360000     -32.03370000     -75.46870000
H      -47.23440000     -30.98270000     -71.50040000
H      -49.01350000     -34.27330000     -73.67840000
H      -47.73190000     -33.73890000     -75.67370000
C      -49.49960000     -32.97050000     -71.49360000
H      -50.49770000     -32.84190000     -71.93910000
H      -49.54440000     -32.25280000     -70.66860000
C      -45.68260000     -30.11660000     -73.51420000
H      -45.88590000     -29.51500000     -74.41860000
H      -46.05170000     -29.44570000     -72.68010000
S      -49.24370000     -34.66900000     -70.72030000
S      -43.80710000     -30.30220000     -73.55310000
C      -47.58790000     -34.12750000     -69.77500000
H      -47.62160000     -33.08470000     -69.68650000
H      -47.67170000     -34.71330000     -68.81280000
C      -43.65420000     -31.30390000     -72.09240000
H      -44.46310000     -31.08800000     -71.34380000
H      -42.78620000     -31.02780000     -71.40380000
C      -43.46510000     -32.87240000     -72.43750000
H      -44.44800000     -33.16470000     -72.81390000
H      -42.74210000     -33.04080000     -73.20980000
C      -46.40020000     -34.54100000     -70.66730000
H      -46.16300000     -33.80500000     -71.48310000
H      -46.66820000     -35.43580000     -71.19930000
C      -45.15470000     -34.87590000     -69.84780000
C      -45.14980000     -35.50430000     -68.65610000
C      -43.80400000     -34.45690000     -70.20850000
H      -45.94560000     -35.86880000     -68.03430000
C      -42.88940000     -34.98780000     -69.29460000
C      -43.09620000     -33.68330000     -71.22560000
C      -41.76980000     -33.68690000     -71.01360000
S      -43.62400000     -35.70030000     -67.90380000
S      -41.21600000     -34.52400000     -69.51010000
H      -40.96310000     -33.20120000     -71.64030000
