40
Properties=species:S:1:pos:R:3 #=T CELL(abcABC):=T 1.889726e+02=T 90.00000=T Traj:=T positionsangstrom=T Step:=T 0=T Bead:=T pbc="F F F"
C      -46.42380000     -33.14090000     -74.77580000
C      -46.34270000     -32.07810000     -73.85890000
C      -47.36340000     -31.89700000     -72.89430000
C      -48.46880000     -32.74670000     -72.87350000
C      -48.56190000     -33.76800000     -73.80100000
C      -47.54940000     -33.94150000     -74.81880000
H      -45.59590000     -33.27530000     -75.40340000
H      -47.36430000     -31.10750000     -72.18350000
H      -49.50230000     -34.39100000     -73.82790000
H      -47.62340000     -34.66180000     -75.62660000
C      -49.40510000     -32.62090000     -71.67200000
H      -50.50270000     -32.61130000     -71.92370000
H      -49.16050000     -31.75460000     -70.96370000
C      -45.33480000     -30.97040000     -74.18270000
H      -45.62070000     -30.31580000     -75.03680000
H      -45.34650000     -30.24760000     -73.34580000
S      -49.14440000     -34.18410000     -70.75890000
S      -43.55900000     -31.59510000     -74.50570000
C      -47.75880000     -33.62090000     -69.49990000
H      -47.94870000     -32.60050000     -69.10030000
H      -47.93650000     -34.36280000     -68.68450000
C      -43.36220000     -32.11290000     -72.76110000
H      -43.96960000     -31.31640000     -72.26510000
H      -42.36660000     -32.00600000     -72.39370000
C      -43.69540000     -33.63450000     -72.45720000
H      -44.76950000     -33.80220000     -72.57010000
H      -43.14520000     -34.15810000     -73.30070000
C      -46.41920000     -33.62340000     -70.23600000
H      -46.26420000     -32.67210000     -70.75380000
H      -46.35640000     -34.31640000     -71.06350000
C      -45.21400000     -33.81400000     -69.32780000
C      -45.37480000     -34.12650000     -68.01020000
C      -43.85910000     -34.01420000     -69.76090000
H      -46.31300000     -34.06160000     -67.48030000
C      -42.95360000     -34.25230000     -68.67980000
C      -43.19330000     -33.98400000     -71.03570000
C      -41.83430000     -34.16140000     -70.88370000
S      -43.81370000     -34.48560000     -67.18000000
S      -41.38590000     -34.42580000     -69.25500000
H      -41.14780000     -34.33150000     -71.59850000
