40
Properties=species:S:1:pos:R:3 #=T CELL(abcABC):=T 1.889726e+02=T 90.00000=T Traj:=T positionsangstrom=T Step:=T 0=T Bead:=T pbc="F F F"
C      -46.50980000     -33.02790000     -75.04190000
C      -46.47690000     -31.93840000     -74.19860000
C      -47.42320000     -31.84440000     -73.10940000
C      -48.47060000     -32.79520000     -72.96110000
C      -48.53000000     -33.83700000     -73.91340000
C      -47.53400000     -34.03640000     -74.83590000
H      -45.78890000     -33.15620000     -75.79270000
H      -47.43550000     -30.93860000     -72.48040000
H      -49.35110000     -34.57480000     -73.71590000
H      -47.57860000     -34.90640000     -75.47460000
C      -49.48440000     -32.68280000     -71.87610000
H      -50.43110000     -32.93910000     -72.31100000
H      -49.57230000     -31.71270000     -71.44400000
C      -45.35490000     -30.98650000     -74.22490000
H      -45.42550000     -30.21380000     -75.01270000
H      -45.26900000     -30.56450000     -73.23740000
S      -49.22930000     -34.03720000     -70.59670000
S      -43.74870000     -31.86230000     -74.49020000
C      -47.76910000     -33.54050000     -69.53190000
H      -48.05250000     -32.64290000     -69.06350000
H      -47.74360000     -34.37650000     -68.84290000
C      -43.00960000     -32.40120000     -72.86830000
H      -43.09910000     -31.57980000     -72.18350000
H      -41.91950000     -32.56150000     -73.02610000
C      -43.67810000     -33.63460000     -72.33400000
H      -44.73690000     -33.56860000     -72.18530000
H      -43.59990000     -34.43500000     -73.02730000
C      -46.39460000     -33.56860000     -70.23000000
H      -46.25340000     -32.52670000     -70.63050000
H      -46.45230000     -34.24430000     -71.10730000
C      -45.17890000     -33.88080000     -69.30840000
C      -45.31270000     -34.21390000     -68.00240000
C      -43.80690000     -33.95120000     -69.73970000
H      -46.23040000     -34.01110000     -67.50870000
C      -42.98480000     -34.20840000     -68.62400000
C      -43.04690000     -34.00230000     -70.99570000
C      -41.69790000     -34.21350000     -70.80180000
S      -43.85170000     -34.33070000     -67.13090000
S      -41.27400000     -34.32890000     -69.04790000
H      -40.98840000     -34.17600000     -71.55470000
