40
Properties=species:S:1:pos:R:3 #=T CELL(abcABC):=T 1.889726e+02=T 90.00000=T Traj:=T positionsangstrom=T Step:=T 0=T Bead:=T pbc="F F F"
C      -46.75220000     -33.04400000     -75.24210000
C      -46.57420000     -31.98890000     -74.33760000
C      -47.40150000     -31.84110000     -73.22640000
C      -48.44950000     -32.82390000     -73.01090000
C      -48.52790000     -33.90410000     -73.87140000
C      -47.75840000     -34.00320000     -75.00430000
H      -45.95330000     -33.00630000     -76.01650000
H      -47.18160000     -31.13960000     -72.41470000
H      -49.33370000     -34.58370000     -73.70730000
H      -47.82990000     -34.87590000     -75.65190000
C      -49.41980000     -32.61950000     -71.87310000
H      -50.46080000     -32.70850000     -72.20930000
H      -49.29420000     -31.60110000     -71.45110000
C      -45.26730000     -31.16680000     -74.23300000
H      -45.43060000     -30.42960000     -75.02920000
H      -45.04990000     -30.53080000     -73.35740000
S      -49.24730000     -33.85980000     -70.50260000
S      -43.69560000     -32.08630000     -74.63800000
C      -47.68250000     -33.39630000     -69.63520000
H      -47.58920000     -32.23710000     -69.74810000
H      -47.77100000     -33.55530000     -68.56370000
C      -42.95910000     -32.39240000     -73.02020000
H      -43.18480000     -31.55880000     -72.34070000
H      -41.83840000     -32.48900000     -73.14590000
C      -43.58620000     -33.62810000     -72.33160000
H      -44.69660000     -33.47530000     -72.45010000
H      -43.32790000     -34.48080000     -72.97450000
C      -46.41330000     -33.98640000     -70.20490000
H      -46.09870000     -33.50040000     -71.10130000
H      -46.55280000     -35.05480000     -70.39620000
C      -45.20120000     -33.84470000     -69.23250000
C      -45.35180000     -33.92250000     -67.87570000
C      -43.83030000     -34.06840000     -69.68610000
H      -46.25430000     -33.77350000     -67.29620000
C      -43.07810000     -34.32600000     -68.58430000
C      -43.03090000     -33.88080000     -70.89810000
C      -41.66500000     -33.88240000     -70.63520000
S      -43.81590000     -34.29000000     -67.02640000
S      -41.27450000     -34.35120000     -68.96450000
H      -40.91430000     -33.74670000     -71.37910000
