40
Properties=species:S:1:pos:R:3 #=T CELL(abcABC):=T 1.889726e+02=T 90.00000=T Traj:=T positionsangstrom=T Step:=T 0=T Bead:=T pbc="F F F"
C      -46.53110000     -32.92750000     -74.92940000
C      -46.53550000     -31.80360000     -74.04020000
C      -47.47980000     -31.76030000     -73.02630000
C      -48.43170000     -32.74170000     -72.81710000
C      -48.40830000     -33.85100000     -73.66260000
C      -47.53530000     -33.87820000     -74.79100000
H      -45.81480000     -33.01050000     -75.75690000
H      -47.41210000     -30.89880000     -72.38630000
H      -49.13650000     -34.64690000     -73.48190000
H      -47.53570000     -34.71900000     -75.45070000
C      -49.34170000     -32.66920000     -71.59410000
H      -50.37570000     -32.46770000     -71.79760000
H      -49.09610000     -31.89210000     -70.91410000
C      -45.46690000     -30.76190000     -74.27290000
H      -45.61270000     -30.42310000     -75.28350000
H      -45.55110000     -29.82160000     -73.67640000
S      -49.24910000     -34.24260000     -70.54420000
S      -43.70060000     -31.34750000     -74.38960000
C      -47.78390000     -33.95060000     -69.54470000
H      -47.79170000     -33.05080000     -68.92140000
H      -47.75190000     -34.76610000     -68.83160000
C      -43.08910000     -31.98940000     -72.67830000
H      -43.37830000     -31.22670000     -71.87620000
H      -42.03070000     -32.04740000     -72.80270000
C      -43.70780000     -33.38560000     -72.33210000
H      -44.76890000     -33.36210000     -72.17370000
H      -43.57220000     -34.09340000     -73.14980000
C      -46.39910000     -34.01530000     -70.28130000
H      -46.38420000     -33.23240000     -71.00000000
H      -46.37950000     -34.99660000     -70.83010000
C      -45.20290000     -33.96090000     -69.42780000
C      -45.22910000     -34.02240000     -68.05850000
C      -43.85460000     -34.22750000     -69.91610000
H      -46.10450000     -34.11100000     -67.44710000
C      -42.97110000     -34.45600000     -68.83010000
C      -43.10610000     -33.95140000     -71.10150000
C      -41.73560000     -34.05160000     -70.91460000
S      -43.76140000     -34.44480000     -67.23850000
S      -41.34390000     -34.67150000     -69.27160000
H      -41.03480000     -33.95570000     -71.65760000
