40
Properties=species:S:1:pos:R:3 #=T CELL(abcABC):=T 1.889726e+02=T 90.00000=T Traj:=T positionsangstrom=T Step:=T 0=T Bead:=T pbc="F F F"
C      -46.73340000     -33.63570000     -75.25050000
C      -46.26880000     -32.43370000     -74.64590000
C      -47.06240000     -31.91570000     -73.58160000
C      -48.12570000     -32.66780000     -73.03860000
C      -48.43860000     -33.92940000     -73.59460000
C      -47.80160000     -34.38610000     -74.72060000
H      -46.19150000     -34.13190000     -76.06140000
H      -46.77570000     -31.06780000     -73.03810000
H      -49.23790000     -34.62350000     -73.23310000
H      -47.94070000     -35.40080000     -75.06070000
C      -48.97390000     -32.12940000     -71.93920000
H      -50.06790000     -31.80130000     -72.04680000
H      -48.48740000     -31.23550000     -71.52400000
C      -44.99330000     -31.75750000     -75.10730000
H      -45.04830000     -31.49130000     -76.14930000
H      -44.69660000     -30.87300000     -74.55580000
S      -49.13900000     -33.18500000     -70.42200000
S      -43.53940000     -32.93230000     -74.84660000
C      -47.42250000     -32.98790000     -69.72990000
H      -46.98820000     -32.01580000     -70.07250000
H      -47.48320000     -32.84980000     -68.68750000
C      -43.22060000     -32.67020000     -73.05050000
H      -43.55220000     -31.67510000     -72.75500000
H      -42.15710000     -32.67390000     -72.83830000
C      -43.83910000     -33.72030000     -72.19840000
H      -44.92090000     -33.65890000     -72.15990000
H      -43.56260000     -34.58800000     -72.72560000
C      -46.50970000     -34.19020000     -70.00910000
H      -46.17720000     -34.27330000     -71.04770000
H      -47.08810000     -35.11600000     -69.75360000
C      -45.36130000     -34.13230000     -69.13080000
C      -45.43600000     -34.40320000     -67.80930000
C      -44.01340000     -33.86640000     -69.50960000
H      -46.25840000     -34.79630000     -67.24050000
C      -43.12000000     -33.86370000     -68.42870000
C      -43.33150000     -33.70170000     -70.76020000
C      -41.97610000     -33.59050000     -70.56700000
S      -43.99910000     -34.14470000     -66.91340000
S      -41.50630000     -33.75680000     -68.85270000
H      -41.16750000     -33.52790000     -71.34590000
