40
Properties=species:S:1:pos:R:3 #=T CELL(abcABC):=T 1.889726e+02=T 90.00000=T Traj:=T positionsangstrom=T Step:=T 0=T Bead:=T pbc="F F F"
C      -46.58880000     -33.85360000     -75.14120000
C      -46.22500000     -32.57220000     -74.68820000
C      -46.97880000     -32.04340000     -73.65490000
C      -48.07930000     -32.72890000     -73.09300000
C      -48.41170000     -34.00800000     -73.56640000
C      -47.67730000     -34.48820000     -74.64140000
H      -45.97320000     -34.35860000     -75.94940000
H      -46.64750000     -31.01210000     -73.31180000
H      -49.18550000     -34.62170000     -73.20160000
H      -48.17280000     -35.34190000     -75.14010000
C      -48.85310000     -31.93190000     -72.04200000
H      -49.80910000     -31.80530000     -72.58110000
H      -48.27580000     -31.03380000     -71.91050000
C      -44.97140000     -31.93780000     -75.23660000
H      -45.10520000     -31.84620000     -76.37240000
H      -44.80280000     -30.96410000     -74.78210000
S      -49.21940000     -33.00190000     -70.62680000
S      -43.49030000     -32.98830000     -74.87530000
C      -47.64480000     -33.09090000     -69.65170000
H      -47.15490000     -32.09300000     -69.82440000
H      -47.92990000     -33.25250000     -68.59230000
C      -43.15060000     -32.64670000     -73.07960000
H      -43.33260000     -31.55010000     -72.97710000
H      -42.07260000     -32.81450000     -73.08000000
C      -43.94510000     -33.45100000     -72.13660000
H      -44.95660000     -33.00260000     -72.14910000
H      -44.17860000     -34.51490000     -72.48360000
C      -46.64460000     -34.25300000     -69.94420000
H      -46.34880000     -34.25140000     -71.01550000
H      -47.07490000     -35.16150000     -69.72370000
C      -45.38970000     -34.08560000     -69.09890000
C      -45.55720000     -34.31600000     -67.74250000
C      -44.01580000     -33.87750000     -69.49580000
H      -46.48120000     -34.35450000     -67.12380000
C      -43.16150000     -33.94080000     -68.36640000
C      -43.28730000     -33.62130000     -70.71690000
C      -41.90120000     -33.50790000     -70.49040000
S      -43.99480000     -34.30140000     -66.87540000
S      -41.50470000     -33.60980000     -68.72820000
H      -41.21100000     -33.11050000     -71.21540000
