40
Properties=species:S:1:pos:R:3 #=T CELL(abcABC):=T 1.889726e+02=T 90.00000=T Traj:=T positionsangstrom=T Step:=T 0=T Bead:=T pbc="F F F"
C      -47.07240000     -31.35210000     -74.55150000
C      -47.56720000     -31.64630000     -73.31470000
C      -46.99110000     -31.13260000     -72.17160000
C      -46.09870000     -30.05130000     -72.24560000
C      -45.72540000     -29.65430000     -73.51700000
C      -46.18440000     -30.27730000     -74.69830000
H      -47.54240000     -31.63290000     -75.47910000
H      -47.31450000     -31.40220000     -71.19380000
H      -44.98520000     -28.92460000     -73.70990000
H      -45.97240000     -29.71510000     -75.53690000
C      -45.42790000     -29.48910000     -71.06030000
H      -45.91090000     -29.85990000     -70.23770000
H      -45.55340000     -28.42250000     -71.06580000
C      -48.80740000     -32.56850000     -73.13260000
H      -49.52850000     -31.98250000     -72.53360000
H      -49.34630000     -32.82700000     -74.06370000
S      -43.66470000     -29.97600000     -70.74670000
S      -48.24810000     -34.10210000     -72.22780000
C      -43.97420000     -31.66220000     -69.93170000
H      -43.65790000     -31.53510000     -68.88260000
H      -45.09310000     -31.82410000     -69.95350000
C      -46.84500000     -34.64060000     -73.28150000
H      -46.93840000     -34.04620000     -74.18240000
H      -46.88010000     -35.67660000     -73.58960000
C      -45.56650000     -34.39980000     -72.55370000
H      -44.69770000     -34.56270000     -73.22820000
H      -45.48080000     -33.37150000     -72.09160000
C      -43.13580000     -32.73050000     -70.70720000
H      -42.06900000     -32.52100000     -70.82620000
H      -43.64570000     -32.73400000     -71.65710000
C      -43.28360000     -34.09220000     -69.99110000
C      -42.55610000     -34.37550000     -68.88910000
C      -44.25220000     -35.08210000     -70.35700000
H      -41.66190000     -33.88390000     -68.64110000
C      -44.07950000     -36.19280000     -69.52370000
C      -45.28990000     -35.35920000     -71.34810000
C      -45.86610000     -36.59710000     -71.16620000
S      -42.77290000     -36.04920000     -68.41270000
S      -45.10960000     -37.57980000     -69.93680000
H      -46.78090000     -36.94550000     -71.73190000
