40
Properties=species:S:1:pos:R:3 #=T CELL(abcABC):=T 1.889726e+02=T 90.00000=T Traj:=T positionsangstrom=T Step:=T 0=T Bead:=T pbc="F F F"
C      -44.62700000     -34.55400000     -67.72650000
C      -43.59270000     -34.55140000     -68.65820000
C      -43.58550000     -35.48010000     -69.70720000
C      -44.65780000     -36.35950000     -69.89960000
C      -45.77480000     -36.21900000     -69.03420000
C      -45.72970000     -35.33970000     -67.93040000
H      -44.56990000     -33.90070000     -66.88260000
H      -42.76420000     -35.61620000     -70.36700000
H      -46.57590000     -36.88030000     -69.10880000
H      -46.53940000     -35.24440000     -67.21510000
C      -44.64450000     -37.42830000     -70.90800000
H      -45.58630000     -38.04260000     -70.77550000
H      -43.83970000     -38.12800000     -70.90560000
C      -42.38910000     -33.67560000     -68.48320000
H      -42.52210000     -32.89020000     -67.74950000
H      -41.57680000     -34.35490000     -68.14850000
S      -44.96940000     -36.80010000     -72.67780000
S      -41.71190000     -33.00440000     -70.06710000
C      -46.13820000     -35.32090000     -72.38940000
H      -47.18010000     -35.71030000     -72.54410000
H      -46.10220000     -34.93040000     -71.37490000
C      -43.04840000     -31.69560000     -70.32300000
H      -42.57420000     -30.66550000     -70.46220000
H      -43.55200000     -31.68640000     -69.33840000
C      -44.02640000     -32.14600000     -71.41490000
H      -43.46440000     -32.13420000     -72.37530000
H      -44.35770000     -33.10450000     -71.08250000
C      -45.71160000     -34.24860000     -73.46440000
H      -45.78600000     -34.67740000     -74.49330000
H      -44.72120000     -33.93440000     -73.36330000
C      -46.63700000     -33.01590000     -73.38740000
C      -47.76220000     -32.99350000     -74.17040000
C      -46.35880000     -31.81180000     -72.57220000
H      -47.96950000     -33.73520000     -74.92770000
C      -47.43970000     -30.98110000     -72.69030000
C      -45.27900000     -31.29220000     -71.71530000
C      -45.64400000     -30.07800000     -71.15880000
S      -48.68190000     -31.45660000     -73.85610000
S      -47.13480000     -29.44890000     -71.86830000
H      -45.04320000     -29.51490000     -70.45730000
