40
Properties=species:S:1:pos:R:3 #=T CELL(abcABC):=T 1.889726e+02=T 90.00000=T Traj:=T positionsangstrom=T Step:=T 0=T Bead:=T pbc="F F F"
C      -47.31000000     -29.04530000     -70.10810000
C      -46.45180000     -29.60140000     -71.05310000
C      -46.96630000     -30.75450000     -71.69990000
C      -48.31340000     -31.19240000     -71.52980000
C      -49.16230000     -30.41770000     -70.67570000
C      -48.65710000     -29.38570000     -69.88290000
H      -46.84010000     -28.19500000     -69.65480000
H      -46.42990000     -31.21090000     -72.48060000
H      -50.20930000     -30.69830000     -70.54520000
H      -49.31370000     -29.06500000     -69.10070000
C      -48.89200000     -32.43490000     -72.24400000
H      -49.64840000     -31.97570000     -72.83160000
H      -49.33840000     -33.06720000     -71.42680000
C      -45.04600000     -29.14380000     -71.32180000
H      -45.04330000     -28.20160000     -72.00970000
H      -44.53620000     -28.80280000     -70.37810000
S      -47.79070000     -33.56690000     -73.18020000
S      -43.89340000     -30.20390000     -72.23830000
C      -46.87650000     -34.41610000     -71.81530000
H      -46.01930000     -33.86400000     -71.36980000
H      -47.58120000     -34.64210000     -71.00520000
C      -43.67390000     -31.75190000     -71.26260000
H      -44.37450000     -31.76150000     -70.45760000
H      -42.74310000     -31.75260000     -70.67220000
C      -43.57230000     -33.01060000     -72.14670000
H      -44.44760000     -33.03820000     -72.78250000
H      -42.72740000     -32.86010000     -72.75900000
C      -46.28960000     -35.65710000     -72.50890000
H      -45.83300000     -35.38650000     -73.44950000
H      -47.04170000     -36.43510000     -72.62780000
C      -45.19050000     -36.22160000     -71.62750000
C      -45.43820000     -37.45250000     -71.12590000
C      -43.96060000     -35.56100000     -71.16500000
H      -46.46240000     -37.94460000     -71.24660000
C      -43.28840000     -36.51270000     -70.42720000
C      -43.19550000     -34.33340000     -71.36030000
C      -42.04470000     -34.38920000     -70.58930000
S      -44.09680000     -38.00950000     -70.06630000
S      -41.69920000     -35.91470000     -69.96540000
H      -41.32430000     -33.61480000     -70.47200000
