40
Properties=species:S:1:pos:R:3 #=T CELL(abcABC):=T 1.889726e+02=T 90.00000=T Traj:=T positionsangstrom=T Step:=T 0=T Bead:=T pbc="F F F"
C      -46.95410000     -29.72850000     -69.96610000
C      -46.37220000     -29.90010000     -71.26150000
C      -47.08320000     -30.73030000     -72.19840000
C      -48.25270000     -31.43150000     -71.82940000
C      -48.83710000     -31.15830000     -70.55470000
C      -48.13420000     -30.41740000     -69.54900000
H      -46.53680000     -29.11020000     -69.21130000
H      -46.66140000     -30.98130000     -73.21160000
H      -49.83040000     -31.60950000     -70.35930000
H      -48.38490000     -30.33340000     -68.50690000
C      -48.95900000     -32.42240000     -72.75660000
H      -49.63120000     -32.05500000     -73.49620000
H      -49.66630000     -32.93570000     -72.05910000
C      -45.11060000     -29.31100000     -71.83150000
H      -45.39700000     -28.64740000     -72.60250000
H      -44.58190000     -28.65190000     -71.11120000
S      -47.90780000     -33.60140000     -73.76340000
S      -44.08240000     -30.61090000     -72.65950000
C      -46.88300000     -34.29480000     -72.40190000
H      -46.52690000     -33.48030000     -71.76500000
H      -47.58570000     -34.85240000     -71.75900000
C      -43.91290000     -31.78840000     -71.26530000
H      -44.91550000     -31.97540000     -70.76640000
H      -43.30180000     -31.36840000     -70.43870000
C      -43.19610000     -33.00020000     -71.92500000
H      -43.74290000     -33.30690000     -72.75550000
H      -42.24650000     -32.58820000     -72.21430000
C      -45.70000000     -35.21730000     -72.84820000
H      -45.05960000     -34.59300000     -73.42550000
H      -45.97840000     -36.07260000     -73.42330000
C      -44.95670000     -35.86030000     -71.62920000
C      -45.35860000     -37.10870000     -71.10470000
C      -43.83470000     -35.31710000     -70.92360000
H      -46.07290000     -37.79570000     -71.62770000
C      -43.42370000     -36.19330000     -69.89610000
C      -43.03990000     -34.11120000     -70.97650000
C      -42.12420000     -34.00630000     -69.95620000
S      -44.23490000     -37.69000000     -69.89910000
S      -42.15610000     -35.48870000     -68.90440000
H      -41.29830000     -33.30900000     -69.72250000
