40
Properties=species:S:1:pos:R:3 #=T CELL(abcABC):=T 1.889726e+02=T 90.00000=T Traj:=T positionsangstrom=T Step:=T 0=T Bead:=T pbc="F F F"
C      -47.33650000     -29.01760000     -70.23350000
C      -46.50520000     -29.66370000     -71.17720000
C      -47.02490000     -30.78860000     -71.79170000
C      -48.35000000     -31.14710000     -71.53570000
C      -49.10420000     -30.55910000     -70.52100000
C      -48.57450000     -29.46990000     -69.83270000
H      -46.96490000     -28.13320000     -69.70870000
H      -46.44690000     -31.41880000     -72.54130000
H      -50.07310000     -31.07600000     -70.19610000
H      -49.12940000     -28.88480000     -69.14280000
C      -49.05540000     -32.35540000     -72.35150000
H      -49.65890000     -31.85620000     -73.07620000
H      -49.80360000     -32.84150000     -71.71720000
C      -45.03510000     -29.29360000     -71.17650000
H      -44.95940000     -28.45230000     -71.87220000
H      -44.58300000     -28.90410000     -70.22800000
S      -48.07380000     -33.62450000     -73.22920000
S      -43.91770000     -30.46170000     -72.06270000
C      -46.82250000     -34.29950000     -72.03860000
H      -46.39170000     -33.45940000     -71.53970000
H      -47.29500000     -34.81060000     -71.23670000
C      -43.58670000     -32.00400000     -71.12260000
H      -44.50260000     -32.30920000     -70.52000000
H      -42.79410000     -31.89380000     -70.37650000
C      -43.37380000     -33.14240000     -72.14360000
H      -44.26730000     -33.22770000     -72.76670000
H      -42.51550000     -32.87030000     -72.84280000
C      -45.88800000     -35.19890000     -72.72700000
H      -45.18250000     -34.70730000     -73.35470000
H      -46.48320000     -35.86140000     -73.35700000
C      -45.10810000     -35.98360000     -71.74820000
C      -45.44100000     -37.19100000     -71.24020000
C      -43.82400000     -35.55040000     -71.23540000
H      -46.30240000     -37.85720000     -71.34130000
C      -43.23260000     -36.46050000     -70.36930000
C      -42.97090000     -34.38770000     -71.45460000
C      -41.83160000     -34.42780000     -70.67880000
S      -44.26830000     -37.80880000     -70.07880000
S      -41.73960000     -35.93720000     -69.73400000
H      -41.10700000     -33.65380000     -70.50740000
