40
Properties=species:S:1:pos:R:3 #=T CELL(abcABC):=T 1.889726e+02=T 90.00000=T Traj:=T positionsangstrom=T Step:=T 0=T Bead:=T pbc="F F F"
C      -46.59830000     -30.16780000     -70.14030000
C      -46.31780000     -30.00550000     -71.50690000
C      -47.08220000     -30.76400000     -72.46610000
C      -48.14160000     -31.60350000     -72.02900000
C      -48.44610000     -31.73450000     -70.60670000
C      -47.67620000     -30.96140000     -69.74890000
H      -45.96640000     -29.63370000     -69.40750000
H      -46.82530000     -30.59650000     -73.46090000
H      -49.12900000     -32.51890000     -70.33160000
H      -47.94350000     -31.01700000     -68.73930000
C      -48.82380000     -32.44490000     -73.00680000
H      -49.35270000     -31.86790000     -73.75260000
H      -49.51890000     -33.11740000     -72.53060000
C      -45.09960000     -29.28600000     -71.90870000
H      -45.31390000     -28.71610000     -72.71470000
H      -44.86430000     -28.55200000     -71.11260000
S      -47.77820000     -33.48610000     -74.03100000
S      -43.69820000     -30.34210000     -72.30910000
C      -47.17670000     -34.72090000     -72.70730000
H      -47.13650000     -34.12770000     -71.82120000
H      -47.90400000     -35.45350000     -72.59600000
C      -43.57470000     -31.59350000     -70.97810000
H      -44.60550000     -31.89920000     -70.66280000
H      -43.02600000     -31.36430000     -70.06460000
C      -42.99340000     -32.82970000     -71.67090000
H      -43.46350000     -32.89050000     -72.61820000
H      -41.95480000     -32.75060000     -71.95580000
C      -45.72800000     -35.17540000     -72.94380000
H      -45.25530000     -34.32070000     -73.35010000
H      -45.66880000     -35.87690000     -73.72410000
C      -45.01770000     -35.75430000     -71.76780000
C      -45.57430000     -36.89060000     -71.20440000
C      -43.98270000     -35.19020000     -70.89340000
H      -46.40570000     -37.44310000     -71.61840000
C      -43.76210000     -36.05060000     -69.78690000
C      -43.03360000     -34.08390000     -70.84830000
C      -42.24820000     -34.13490000     -69.77970000
S      -44.78910000     -37.46720000     -69.70620000
S      -42.48260000     -35.51600000     -68.71660000
H      -41.60780000     -33.34230000     -69.39270000
