40
Properties=species:S:1:pos:R:3 #=T CELL(abcABC):=T 1.889726e+02=T 90.00000=T Traj:=T positionsangstrom=T Step:=T 0=T Bead:=T pbc="F F F"
C      -46.85450000     -29.94590000     -70.10100000
C      -46.47080000     -30.02570000     -71.45960000
C      -47.22630000     -30.81750000     -72.29600000
C      -48.24400000     -31.56700000     -71.80660000
C      -48.58630000     -31.62440000     -70.45930000
C      -47.87670000     -30.71320000     -69.63210000
H      -46.24970000     -29.41430000     -69.32320000
H      -46.78980000     -30.84840000     -73.33530000
H      -49.42920000     -32.31340000     -70.18370000
H      -48.15530000     -30.64640000     -68.55730000
C      -48.98440000     -32.43320000     -72.78590000
H      -49.35150000     -31.92870000     -73.67320000
H      -49.76160000     -33.03300000     -72.26420000
C      -45.22820000     -29.31640000     -71.91660000
H      -45.47230000     -28.48730000     -72.62590000
H      -44.78990000     -28.89180000     -70.98140000
S      -47.83940000     -33.66060000     -73.61450000
S      -44.04720000     -30.38630000     -72.79700000
C      -46.82420000     -34.26410000     -72.17840000
H      -46.23090000     -33.50410000     -71.63850000
H      -47.42700000     -34.73880000     -71.44020000
C      -43.76040000     -31.64750000     -71.44810000
H      -44.72490000     -31.94720000     -71.13990000
H      -43.25670000     -31.14800000     -70.62760000
C      -43.04490000     -32.96980000     -71.92600000
H      -43.56450000     -33.38340000     -72.77090000
H      -41.97250000     -32.83690000     -72.19500000
C      -45.69850000     -35.12890000     -72.82990000
H      -45.10390000     -34.53930000     -73.49540000
H      -46.10010000     -35.86840000     -73.54370000
C      -44.90650000     -35.78630000     -71.73320000
C      -45.24600000     -37.09200000     -71.34000000
C      -43.82220000     -35.28890000     -70.94750000
H      -45.99420000     -37.74990000     -71.80710000
C      -43.51970000     -36.11940000     -69.87130000
C      -43.02270000     -34.04100000     -70.91050000
C      -42.20010000     -34.01900000     -69.80090000
S      -44.50160000     -37.53610000     -69.77510000
S      -42.27690000     -35.47700000     -68.80550000
H      -41.35800000     -33.34670000     -69.52700000
