40
Properties=species:S:1:pos:R:3 #=T CELL(abcABC):=T 1.889726e+02=T 90.00000=T Traj:=T positionsangstrom=T Step:=T 0=T Bead:=T pbc="F F F"
C      -46.61640000     -30.32590000     -70.08260000
C      -46.40820000     -30.14860000     -71.48170000
C      -47.23760000     -30.78070000     -72.37890000
C      -48.24040000     -31.66760000     -71.90560000
C      -48.46110000     -31.72150000     -70.47800000
C      -47.72440000     -31.00740000     -69.56990000
H      -45.94850000     -29.70940000     -69.47090000
H      -47.12710000     -30.63640000     -73.46730000
H      -49.18330000     -32.43330000     -70.06310000
H      -47.91380000     -31.04150000     -68.50080000
C      -48.99010000     -32.53480000     -72.86520000
H      -49.28620000     -31.78940000     -73.71460000
H      -49.85130000     -33.05540000     -72.48030000
C      -45.32250000     -29.18900000     -71.85750000
H      -45.52350000     -28.46640000     -72.63930000
H      -44.81340000     -28.73140000     -71.02230000
S      -47.86570000     -33.77930000     -73.63910000
S      -44.01440000     -30.26900000     -72.71040000
C      -46.70130000     -34.21900000     -72.34110000
H      -46.41940000     -33.31310000     -71.81680000
H      -47.29310000     -34.90120000     -71.65930000
C      -43.78770000     -31.67380000     -71.46930000
H      -44.73780000     -32.00100000     -71.05570000
H      -43.18520000     -31.32220000     -70.58700000
C      -43.02640000     -32.94380000     -71.97460000
H      -43.20890000     -33.20300000     -73.04880000
H      -41.93030000     -32.64990000     -72.08890000
C      -45.54900000     -35.07440000     -72.90050000
H      -44.84750000     -34.46290000     -73.56890000
H      -45.94480000     -35.85320000     -73.61930000
C      -44.88850000     -35.76370000     -71.72340000
C      -45.43810000     -36.97700000     -71.22360000
C      -43.94150000     -35.17800000     -70.82450000
H      -46.37710000     -37.46840000     -71.41150000
C      -43.61620000     -36.01910000     -69.78570000
C      -43.08140000     -33.99120000     -70.90510000
C      -42.17230000     -34.01430000     -69.84140000
S      -44.54150000     -37.51410000     -69.81000000
S      -42.37380000     -35.35040000     -68.75320000
H      -41.73510000     -33.15070000     -69.46950000
