40
Properties=species:S:1:pos:R:3 #=T CELL(abcABC):=T 1.889726e+02=T 90.00000=T Traj:=T positionsangstrom=T Step:=T 0=T Bead:=T pbc="F F F"
C      -43.50190000     -34.62300000     -68.77020000
C      -42.86260000     -35.18440000     -69.91230000
C      -43.63680000     -35.98490000     -70.76130000
C      -44.97310000     -36.18800000     -70.43590000
C      -45.50660000     -35.74020000     -69.22420000
C      -44.78950000     -34.89650000     -68.40180000
H      -42.93770000     -33.99180000     -68.08820000
H      -43.16750000     -36.43040000     -71.62390000
H      -46.55100000     -35.93870000     -68.86490000
H      -45.20640000     -34.54330000     -67.51770000
C      -45.85130000     -37.10470000     -71.21350000
H      -46.83160000     -37.10720000     -70.72730000
H      -45.37090000     -38.10440000     -71.25160000
C      -41.44990000     -34.88170000     -70.30610000
H      -40.69670000     -35.04300000     -69.46450000
H      -41.21760000     -35.53640000     -71.21880000
S      -45.91570000     -36.65590000     -73.12370000
S      -41.29960000     -33.05830000     -70.69390000
C      -46.92040000     -35.03740000     -72.96080000
H      -47.72850000     -35.19120000     -73.61730000
H      -47.25520000     -34.94910000     -71.97720000
C      -42.88920000     -32.22250000     -70.35760000
H      -42.59150000     -31.18330000     -70.37770000
H      -43.12510000     -32.51230000     -69.34970000
C      -44.01660000     -32.51360000     -71.38940000
H      -43.61560000     -32.36170000     -72.37520000
H      -44.26560000     -33.65220000     -71.32600000
C      -46.20560000     -33.84650000     -73.54970000
H      -46.21310000     -33.98500000     -74.62420000
H      -45.15890000     -33.83500000     -73.36070000
C      -46.88700000     -32.65250000     -73.09010000
C      -48.11740000     -32.29740000     -73.57970000
C      -46.50500000     -31.78420000     -72.00180000
H      -48.61330000     -32.67780000     -74.48320000
C      -47.40840000     -30.76660000     -71.64680000
C      -45.28950000     -31.68750000     -71.23180000
C      -45.29820000     -30.61050000     -70.36280000
S      -48.85740000     -30.96000000     -72.57660000
S      -46.76780000     -29.65840000     -70.47580000
H      -44.44820000     -30.20980000     -69.75100000
