40
Properties=species:S:1:pos:R:3 #=T CELL(abcABC):=T 1.889726e+02=T 90.00000=T Traj:=T positionsangstrom=T Step:=T 0=T Bead:=T pbc="F F F"
C      -44.23820000     -34.59100000     -68.08260000
C      -43.21770000     -34.87490000     -68.98120000
C      -43.41100000     -35.86070000     -69.94470000
C      -44.70480000     -36.46270000     -70.04490000
C      -45.71740000     -36.28460000     -69.00230000
C      -45.45720000     -35.31170000     -68.09520000
H      -44.08410000     -33.75480000     -67.43560000
H      -42.69660000     -36.00240000     -70.76550000
H      -46.62850000     -36.79100000     -69.10080000
H      -46.19360000     -35.03070000     -67.36820000
C      -44.84120000     -37.38840000     -71.32300000
H      -45.52350000     -38.28740000     -71.19300000
H      -43.93560000     -37.77310000     -71.53600000
C      -41.99640000     -33.98440000     -68.88520000
H      -42.34320000     -33.15410000     -68.15850000
H      -41.07680000     -34.39810000     -68.52420000
S      -45.18820000     -36.57070000     -73.01630000
S      -41.61640000     -33.32500000     -70.56240000
C      -46.25350000     -35.11530000     -72.56160000
H      -47.28490000     -35.44070000     -72.49390000
H      -45.93760000     -34.73730000     -71.58940000
C      -42.89140000     -31.98670000     -70.75970000
H      -42.50400000     -31.21910000     -71.45960000
H      -43.00360000     -31.53660000     -69.75140000
C      -44.28840000     -32.56510000     -71.26010000
H      -44.24350000     -32.91390000     -72.25700000
H      -44.49080000     -33.42720000     -70.70130000
C      -46.14490000     -34.00030000     -73.65020000
H      -46.53390000     -34.37940000     -74.61140000
H      -45.09030000     -33.85070000     -73.87240000
C      -46.91950000     -32.77150000     -73.32060000
C      -48.06130000     -32.37880000     -73.94950000
C      -46.53390000     -31.79000000     -72.31400000
H      -48.51460000     -32.95030000     -74.81620000
C      -47.44340000     -30.76320000     -72.26730000
C      -45.41180000     -31.65140000     -71.37380000
C      -45.52290000     -30.44640000     -70.66220000
S      -48.75710000     -30.91540000     -73.32450000
S      -46.92870000     -29.49290000     -71.12220000
H      -44.78140000     -30.08330000     -69.98930000
