40
Properties=species:S:1:pos:R:3 #=T CELL(abcABC):=T 1.889726e+02=T 90.00000=T Traj:=T positionsangstrom=T Step:=T 0=T Bead:=T pbc="F F F"
C      -47.56800000     -29.99950000     -70.23140000
C      -46.67060000     -29.95210000     -71.25070000
C      -46.92640000     -30.60760000     -72.49990000
C      -48.12110000     -31.33570000     -72.58080000
C      -49.14630000     -31.23160000     -71.58660000
C      -48.86030000     -30.54080000     -70.39570000
H      -47.41630000     -29.33200000     -69.36300000
H      -46.13100000     -30.63190000     -73.21120000
H      -50.01190000     -31.85760000     -71.71140000
H      -49.71240000     -30.34520000     -69.67180000
C      -48.34130000     -32.02960000     -73.85930000
H      -48.23230000     -31.38880000     -74.75160000
H      -49.31020000     -32.45970000     -73.95130000
C      -45.31420000     -29.25940000     -71.06650000
H      -45.25460000     -28.48340000     -71.82390000
H      -45.21350000     -28.80030000     -70.07250000
S      -46.94550000     -33.31740000     -74.22020000
S      -43.82740000     -30.25830000     -71.58940000
C      -46.62320000     -34.16150000     -72.63450000
H      -46.40270000     -33.53260000     -71.83400000
H      -47.60540000     -34.62730000     -72.47070000
C      -44.15260000     -31.92790000     -70.73320000
H      -45.21450000     -32.26460000     -70.72920000
H      -43.92180000     -31.81250000     -69.71330000
C      -43.27800000     -32.96340000     -71.39270000
H      -43.75140000     -33.26020000     -72.37200000
H      -42.31030000     -32.47140000     -71.64280000
C      -45.43770000     -35.20150000     -72.89900000
H      -44.64760000     -34.57340000     -73.38870000
H      -45.86390000     -35.96120000     -73.55420000
C      -44.93880000     -35.92450000     -71.69150000
C      -45.18690000     -37.24270000     -71.44090000
C      -44.00890000     -35.35990000     -70.70920000
H      -45.82260000     -37.86570000     -72.05330000
C      -43.73650000     -36.28130000     -69.64360000
C      -43.20900000     -34.23580000     -70.56080000
C      -42.35620000     -34.31760000     -69.49770000
S      -44.47600000     -37.81230000     -69.98870000
S      -42.44890000     -35.79860000     -68.65710000
H      -41.57100000     -33.64290000     -69.21860000
