40
Properties=species:S:1:pos:R:3 #=T CELL(abcABC):=T 1.889726e+02=T 90.00000=T Traj:=T positionsangstrom=T Step:=T 0=T Bead:=T pbc="F F F"
C      -47.63920000     -30.02850000     -70.21680000
C      -46.69210000     -29.97930000     -71.22860000
C      -46.88910000     -30.66600000     -72.41950000
C      -48.08890000     -31.40220000     -72.58280000
C      -49.12280000     -31.39190000     -71.58070000
C      -48.86240000     -30.67240000     -70.40910000
H      -47.30590000     -29.63680000     -69.28540000
H      -46.21860000     -30.59750000     -73.28190000
H      -50.08900000     -31.84910000     -71.85890000
H      -49.57250000     -30.51880000     -69.62620000
C      -48.29390000     -32.26600000     -73.75390000
H      -48.50710000     -31.69040000     -74.71430000
H      -49.11250000     -33.02350000     -73.67870000
C      -45.36050000     -29.24470000     -70.98320000
H      -45.27980000     -28.23070000     -71.50660000
H      -45.27640000     -28.96260000     -69.93670000
S      -46.80400000     -33.19860000     -74.32870000
S      -43.84120000     -30.18400000     -71.58590000
C      -46.34100000     -34.05320000     -72.65770000
H      -45.91020000     -33.27170000     -72.02300000
H      -47.32900000     -34.46020000     -72.28370000
C      -44.02010000     -31.70270000     -70.50370000
H      -45.04690000     -32.04180000     -70.36180000
H      -43.44660000     -31.49500000     -69.56160000
C      -43.28370000     -32.88010000     -71.25380000
H      -43.74240000     -33.03530000     -72.23090000
H      -42.30310000     -32.54020000     -71.57790000
C      -45.34570000     -35.21820000     -72.99720000
H      -44.48480000     -34.78400000     -73.54320000
H      -45.70940000     -35.91290000     -73.73860000
C      -44.94610000     -35.95900000     -71.75090000
C      -45.42270000     -37.21650000     -71.51620000
C      -43.92350000     -35.40540000     -70.81460000
H      -46.20140000     -37.71920000     -72.05300000
C      -43.70210000     -36.37370000     -69.83060000
C      -43.22900000     -34.21350000     -70.49910000
C      -42.38960000     -34.28340000     -69.42830000
S      -44.59770000     -37.85760000     -70.05710000
S      -42.60530000     -35.80750000     -68.61660000
H      -41.92030000     -33.37950000     -68.99330000
