40
Properties=species:S:1:pos:R:3 #=T CELL(abcABC):=T 1.889726e+02=T 90.00000=T Traj:=T positionsangstrom=T Step:=T 0=T Bead:=T pbc="F F F"
C      -43.93530000     -35.70530000     -68.59700000
C      -43.29360000     -35.57610000     -69.91140000
C      -43.83900000     -36.17220000     -70.98120000
C      -45.06310000     -36.91790000     -70.78990000
C      -45.71430000     -37.10310000     -69.51380000
C      -45.13360000     -36.43930000     -68.42660000
H      -43.50650000     -35.31720000     -67.68330000
H      -43.51230000     -36.10940000     -71.96800000
H      -46.56130000     -37.82730000     -69.39300000
H      -45.57580000     -36.30660000     -67.45500000
C      -45.76200000     -37.45640000     -72.01490000
H      -46.77610000     -37.90310000     -71.81450000
H      -45.16670000     -38.22540000     -72.51900000
C      -41.92830000     -34.70480000     -70.09250000
H      -41.99940000     -33.95150000     -69.28880000
H      -41.02740000     -35.27890000     -69.85310000
S      -46.11570000     -36.15960000     -73.33490000
S      -41.63220000     -33.87320000     -71.75470000
C      -46.72130000     -34.68450000     -72.28820000
H      -47.61170000     -34.90950000     -71.77030000
H      -46.05060000     -34.52780000     -71.48260000
C      -42.52570000     -32.31050000     -71.41440000
H      -42.30450000     -31.72880000     -72.31490000
H      -42.21840000     -31.89540000     -70.46360000
C      -44.04650000     -32.61250000     -71.51640000
H      -44.17280000     -33.06610000     -72.49770000
H      -44.22570000     -33.42650000     -70.74860000
C      -46.83080000     -33.54290000     -73.25400000
H      -47.68430000     -33.65080000     -73.91650000
H      -45.88170000     -33.32370000     -73.74290000
C      -47.22270000     -32.23350000     -72.53880000
C      -48.43280000     -31.57760000     -72.69080000
C      -46.31900000     -31.36330000     -71.79330000
H      -49.23240000     -32.12610000     -73.16470000
C      -46.97570000     -30.26620000     -71.27390000
C      -44.94400000     -31.43190000     -71.20190000
C      -44.65620000     -30.39470000     -70.38290000
S      -48.62670000     -30.12720000     -71.71010000
S      -45.93280000     -29.16510000     -70.26770000
H      -43.74010000     -30.29830000     -69.76200000
