40
Properties=species:S:1:pos:R:3 #=T CELL(abcABC):=T 1.889726e+02=T 90.00000=T Traj:=T positionsangstrom=T Step:=T 0=T Bead:=T pbc="F F F"
C      -43.74140000     -35.34210000     -68.60670000
C      -43.06440000     -35.58540000     -69.82640000
C      -43.71430000     -36.32350000     -70.84480000
C      -45.05200000     -36.76630000     -70.69220000
C      -45.76680000     -36.47650000     -69.50020000
C      -45.01270000     -35.91860000     -68.42470000
H      -43.16630000     -34.94630000     -67.74880000
H      -43.18410000     -36.68670000     -71.71810000
H      -46.76080000     -36.86440000     -69.35600000
H      -45.35950000     -35.86480000     -67.47290000
C      -45.74400000     -37.38240000     -71.86630000
H      -46.75040000     -37.71330000     -71.53770000
H      -45.13600000     -38.20060000     -72.30090000
C      -41.65740000     -35.08530000     -70.01140000
H      -41.25570000     -34.74040000     -69.01470000
H      -40.92810000     -35.84600000     -70.34770000
S      -45.98370000     -36.15620000     -73.24490000
S      -41.56950000     -33.82470000     -71.26750000
C      -46.94460000     -34.81650000     -72.36750000
H      -47.99800000     -35.16980000     -72.34610000
H      -46.65420000     -34.71180000     -71.33070000
C      -42.78450000     -32.44010000     -70.71220000
H      -42.28640000     -31.47450000     -70.88810000
H      -42.94360000     -32.53040000     -69.64140000
C      -44.07980000     -32.53620000     -71.53200000
H      -43.84620000     -32.49500000     -72.60410000
H      -44.56510000     -33.45510000     -71.29900000
C      -46.69820000     -33.62680000     -73.33440000
H      -47.33900000     -33.78390000     -74.18040000
H      -45.71520000     -33.62100000     -73.73920000
C      -47.07640000     -32.27590000     -72.73390000
C      -48.25760000     -31.70120000     -73.18360000
C      -46.40880000     -31.50150000     -71.75510000
H      -48.89160000     -32.36600000     -73.77800000
C      -47.16730000     -30.38530000     -71.45650000
C      -45.01740000     -31.45950000     -71.27340000
C      -44.76040000     -30.29830000     -70.58380000
S      -48.66700000     -30.25270000     -72.19600000
S      -46.25720000     -29.28510000     -70.36120000
H      -43.77690000     -30.04600000     -70.19590000
