40
Properties=species:S:1:pos:R:3 #=T CELL(abcABC):=T 1.889726e+02=T 90.00000=T Traj:=T positionsangstrom=T Step:=T 0=T Bead:=T pbc="F F F"
C      -47.55940000     -30.41110000     -70.36950000
C      -46.59800000     -30.13800000     -71.35670000
C      -46.82200000     -30.74250000     -72.63290000
C      -47.90970000     -31.62890000     -72.90930000
C      -48.81890000     -31.94460000     -71.80150000
C      -48.63690000     -31.25670000     -70.60470000
H      -47.48860000     -29.91250000     -69.41160000
H      -46.31680000     -30.43010000     -73.52110000
H      -49.70580000     -32.44950000     -72.01660000
H      -49.34890000     -31.50590000     -69.81500000
C      -48.07780000     -32.30260000     -74.26490000
H      -48.21230000     -31.50920000     -75.02750000
H      -48.92470000     -32.91010000     -74.25620000
C      -45.42640000     -29.21860000     -71.06540000
H      -45.48070000     -28.32730000     -71.64710000
H      -45.49980000     -28.98200000     -69.96660000
S      -46.51120000     -33.24060000     -74.63890000
S      -43.83000000     -30.08560000     -71.33930000
C      -46.02210000     -34.01020000     -73.04810000
H      -45.85440000     -33.23100000     -72.32240000
H      -46.81240000     -34.64460000     -72.80800000
C      -44.17100000     -31.65320000     -70.40180000
H      -45.18370000     -32.03980000     -70.67310000
H      -44.10650000     -31.42060000     -69.32500000
C      -43.11590000     -32.70370000     -70.75660000
H      -43.00500000     -32.85220000     -71.80780000
H      -42.15080000     -32.46470000     -70.31700000
C      -44.76640000     -34.88900000     -73.12680000
H      -43.88650000     -34.22340000     -73.15030000
H      -44.80230000     -35.58490000     -73.92960000
C      -44.62350000     -35.68110000     -71.83650000
C      -45.03970000     -37.00400000     -71.81170000
C      -43.95160000     -35.25410000     -70.60210000
H      -45.40720000     -37.52740000     -72.75680000
C      -43.97040000     -36.28430000     -69.71000000
C      -43.42900000     -34.02040000     -70.04250000
C      -43.09910000     -34.18220000     -68.71080000
S      -44.85750000     -37.71550000     -70.22850000
S      -43.29870000     -35.86060000     -68.13100000
H      -42.67020000     -33.36820000     -68.02920000
