40
Properties=species:S:1:pos:R:3 #=T CELL(abcABC):=T 1.889726e+02=T 90.00000=T Traj:=T positionsangstrom=T Step:=T 0=T Bead:=T pbc="F F F"
C      -48.00370000     -30.44050000     -70.51710000
C      -46.93180000     -30.05480000     -71.36750000
C      -46.73390000     -30.69730000     -72.63220000
C      -47.69450000     -31.56510000     -73.09310000
C      -48.88350000     -31.80570000     -72.34470000
C      -49.00350000     -31.33980000     -71.05090000
H      -48.02860000     -30.28940000     -69.46420000
H      -45.87760000     -30.46540000     -73.12850000
H      -49.53690000     -32.54480000     -72.71550000
H      -49.90450000     -31.74870000     -70.63650000
C      -47.59960000     -32.41290000     -74.44590000
H      -47.74680000     -31.86760000     -75.37580000
H      -48.43770000     -33.13850000     -74.49820000
C      -45.80780000     -29.15770000     -70.87110000
H      -45.65170000     -28.26500000     -71.50810000
H      -45.99640000     -28.69000000     -69.86300000
S      -45.99150000     -33.25810000     -74.80720000
S      -44.16100000     -29.99910000     -70.87230000
C      -45.71730000     -34.34660000     -73.32970000
H      -45.92560000     -33.70170000     -72.49540000
H      -46.34590000     -35.31700000     -73.40500000
C      -44.44700000     -31.62020000     -69.96070000
H      -45.52460000     -32.00070000     -69.97070000
H      -44.14170000     -31.48220000     -68.87630000
C      -43.46860000     -32.61810000     -70.50570000
H      -43.60820000     -32.62790000     -71.54680000
H      -42.48520000     -32.17910000     -70.30340000
C      -44.24430000     -34.86040000     -73.13220000
H      -43.59420000     -33.99900000     -73.02300000
H      -43.96200000     -35.34800000     -73.99170000
C      -44.24020000     -35.74200000     -71.92040000
C      -44.51760000     -37.04130000     -72.02210000
C      -43.88210000     -35.26090000     -70.59300000
H      -44.86300000     -37.57490000     -72.89560000
C      -44.02430000     -36.27460000     -69.63530000
C      -43.55580000     -33.99190000     -69.91790000
C      -43.42870000     -34.12450000     -68.55310000
S      -44.57630000     -37.80770000     -70.36160000
S      -43.71740000     -35.78720000     -67.95650000
H      -43.11070000     -33.39710000     -67.88260000
