40
Properties=species:S:1:pos:R:3 #=T CELL(abcABC):=T 1.889726e+02=T 90.00000=T Traj:=T positionsangstrom=T Step:=T 0=T Bead:=T pbc="F F F"
C      -47.77460000     -30.58630000     -70.43220000
C      -46.76160000     -30.18350000     -71.33380000
C      -46.89430000     -30.54960000     -72.71140000
C      -47.92890000     -31.45270000     -73.13710000
C      -48.77940000     -31.99240000     -72.18690000
C      -48.77180000     -31.48420000     -70.84250000
H      -47.62160000     -30.22980000     -69.38160000
H      -46.12900000     -30.17270000     -73.44520000
H      -49.52780000     -32.72230000     -72.52810000
H      -49.53460000     -31.66610000     -70.07350000
C      -47.86970000     -32.07810000     -74.43020000
H      -47.81170000     -31.40490000     -75.21950000
H      -48.73000000     -32.73010000     -74.63610000
C      -45.57290000     -29.27460000     -70.93150000
H      -45.49900000     -28.29000000     -71.49800000
H      -45.69090000     -28.94350000     -69.89330000
S      -46.38080000     -33.18410000     -74.69600000
S      -43.97950000     -30.13600000     -71.20380000
C      -46.02220000     -34.07610000     -73.06790000
H      -46.00620000     -33.36870000     -72.26080000
H      -46.85240000     -34.78140000     -72.95540000
C      -44.37680000     -31.74010000     -70.28950000
H      -45.38700000     -32.07820000     -70.56440000
H      -44.35710000     -31.48400000     -69.23380000
C      -43.23490000     -32.66030000     -70.57560000
H      -42.99590000     -32.73900000     -71.71030000
H      -42.27570000     -32.25710000     -70.16440000
C      -44.68400000     -34.84650000     -73.08270000
H      -43.89430000     -34.16780000     -73.22520000
H      -44.60420000     -35.60990000     -73.89640000
C      -44.50580000     -35.67410000     -71.80830000
C      -44.89290000     -36.99990000     -71.86390000
C      -44.03330000     -35.23460000     -70.51740000
H      -45.26150000     -37.57860000     -72.69650000
C      -43.97110000     -36.25880000     -69.57400000
C      -43.44080000     -34.03660000     -69.92800000
C      -43.11250000     -34.19430000     -68.58050000
S      -44.63530000     -37.72360000     -70.28700000
S      -43.28490000     -35.85160000     -68.04190000
H      -42.55290000     -33.41400000     -67.98650000
