40
Properties=species:S:1:pos:R:3 #=T CELL(abcABC):=T 1.889726e+02=T 90.00000=T Traj:=T positionsangstrom=T Step:=T 0=T Bead:=T pbc="F F F"
C      -47.80260000     -30.57820000     -70.44740000
C      -46.74880000     -30.27690000     -71.40770000
C      -46.80820000     -30.79820000     -72.69390000
C      -47.88470000     -31.64200000     -73.09080000
C      -48.90540000     -31.92010000     -72.15640000
C      -48.81250000     -31.43960000     -70.84020000
H      -47.82130000     -30.17660000     -69.42170000
H      -46.01820000     -30.42560000     -73.38550000
H      -49.64520000     -32.57210000     -72.66660000
H      -49.56250000     -31.86930000     -70.12650000
C      -47.78360000     -32.23660000     -74.52780000
H      -47.85630000     -31.43990000     -75.26750000
H      -48.63720000     -32.94280000     -74.62610000
C      -45.71540000     -29.20110000     -71.03920000
H      -45.67860000     -28.39920000     -71.78870000
H      -46.01420000     -28.80820000     -70.07860000
S      -46.10890000     -33.12080000     -74.73690000
S      -44.07870000     -29.96850000     -71.03820000
C      -46.10330000     -34.11870000     -73.14830000
H      -46.13080000     -33.39050000     -72.25330000
H      -46.91170000     -34.85930000     -73.12500000
C      -44.35740000     -31.65410000     -70.28480000
H      -45.27210000     -32.10660000     -70.61710000
H      -44.31120000     -31.57190000     -69.12470000
C      -43.25070000     -32.70140000     -70.65780000
H      -43.26900000     -32.76650000     -71.73860000
H      -42.32280000     -32.30680000     -70.41120000
C      -44.70580000     -34.76790000     -72.98420000
H      -43.96410000     -34.01810000     -72.95970000
H      -44.60190000     -35.39460000     -73.91940000
C      -44.57030000     -35.68830000     -71.79730000
C      -44.87290000     -36.99880000     -71.83130000
C      -43.99680000     -35.27700000     -70.57380000
H      -45.13300000     -37.62380000     -72.61930000
C      -43.95270000     -36.29350000     -69.58220000
C      -43.44990000     -34.01520000     -69.99100000
C      -43.13350000     -34.20750000     -68.65230000
S      -44.55290000     -37.78810000     -70.27490000
S      -43.41980000     -35.81960000     -67.99670000
H      -42.69540000     -33.40800000     -68.10740000
