40
Properties=species:S:1:pos:R:3 #=T CELL(abcABC):=T 1.889726e+02=T 90.00000=T Traj:=T positionsangstrom=T Step:=T 0=T Bead:=T pbc="F F F"
C      -47.97990000     -30.41040000     -70.59090000
C      -46.86230000     -30.17880000     -71.41890000
C      -46.78570000     -30.82720000     -72.64820000
C      -47.79160000     -31.71740000     -73.11310000
C      -48.82350000     -32.12500000     -72.21840000
C      -48.88520000     -31.39800000     -71.00390000
H      -48.04320000     -29.73230000     -69.75740000
H      -45.99360000     -30.84820000     -73.33620000
H      -49.58940000     -32.90630000     -72.32320000
H      -49.70770000     -31.59520000     -70.35640000
C      -47.66250000     -32.37490000     -74.43150000
H      -47.80140000     -31.66410000     -75.26980000
H      -48.35500000     -33.17470000     -74.58790000
C      -45.82720000     -29.29910000     -70.87390000
H      -45.62130000     -28.37680000     -71.42830000
H      -46.10210000     -29.01680000     -69.85540000
S      -46.02350000     -33.14080000     -74.70390000
S      -44.06160000     -29.97090000     -70.94910000
C      -45.96930000     -34.26440000     -73.29220000
H      -46.40710000     -33.71370000     -72.48680000
H      -46.68530000     -35.04370000     -73.39780000
C      -44.30110000     -31.60520000     -70.13730000
H      -45.32880000     -31.89570000     -70.33170000
H      -44.32060000     -31.44190000     -69.10430000
C      -43.32520000     -32.63640000     -70.63740000
H      -43.49990000     -32.82200000     -71.68880000
H      -42.23000000     -32.32210000     -70.48770000
C      -44.55370000     -34.85710000     -73.19330000
H      -43.74540000     -34.09780000     -73.21800000
H      -44.36590000     -35.53330000     -74.04290000
C      -44.42970000     -35.67050000     -71.85450000
C      -44.69700000     -37.00000000     -71.86100000
C      -44.07730000     -35.19330000     -70.55390000
H      -44.96730000     -37.67840000     -72.61420000
C      -44.12960000     -36.22450000     -69.57230000
C      -43.52460000     -33.97160000     -69.92470000
C      -43.23530000     -34.16640000     -68.58830000
S      -44.51350000     -37.69410000     -70.30250000
S      -43.56040000     -35.81440000     -68.01420000
H      -43.05550000     -33.40560000     -67.92750000
