40
Properties=species:S:1:pos:R:3 #=T CELL(abcABC):=T 1.889726e+02=T 90.00000=T Traj:=T positionsangstrom=T Step:=T 0=T Bead:=T pbc="F F F"
C      -47.82530000     -30.28840000     -70.72490000
C      -46.72060000     -29.98970000     -71.44060000
C      -46.51300000     -30.61370000     -72.72410000
C      -47.49380000     -31.42310000     -73.24280000
C      -48.67660000     -31.64020000     -72.51030000
C      -48.82910000     -31.00760000     -71.31940000
H      -48.02420000     -30.01140000     -69.69300000
H      -45.60370000     -30.45740000     -73.36020000
H      -49.50310000     -32.17180000     -72.97100000
H      -49.66550000     -31.11670000     -70.63970000
C      -47.35680000     -32.18110000     -74.53820000
H      -47.56860000     -31.46680000     -75.38030000
H      -48.09740000     -33.00760000     -74.65400000
C      -45.62600000     -29.14080000     -70.86070000
H      -45.38340000     -28.30190000     -71.47070000
H      -45.90070000     -28.66190000     -69.85450000
S      -45.64090000     -32.92290000     -74.67020000
S      -44.03480000     -30.15020000     -70.69280000
C      -45.56750000     -33.92090000     -73.09970000
H      -45.51260000     -33.24090000     -72.23880000
H      -46.49540000     -34.60700000     -73.06540000
C      -44.51570000     -31.64540000     -69.80410000
H      -45.52840000     -31.87040000     -70.19330000
H      -44.51540000     -31.52380000     -68.78850000
C      -43.67590000     -32.77650000     -70.34650000
H      -43.92010000     -32.86220000     -71.35990000
H      -42.61330000     -32.62760000     -70.31960000
C      -44.27500000     -34.74750000     -73.01340000
H      -43.38860000     -34.08050000     -72.87210000
H      -44.16810000     -35.25770000     -73.97640000
C      -44.22860000     -35.68520000     -71.90710000
C      -44.38140000     -37.05790000     -72.12300000
C      -44.12710000     -35.36050000     -70.48020000
H      -44.50670000     -37.46110000     -73.09010000
C      -44.17720000     -36.55240000     -69.71310000
C      -43.96650000     -34.13010000     -69.70930000
C      -44.01930000     -34.42900000     -68.35560000
S      -44.67650000     -37.99930000     -70.62870000
S      -44.18580000     -36.13900000     -68.00010000
H      -43.91190000     -33.58420000     -67.59500000
