40
Properties=species:S:1:pos:R:3 #=T CELL(abcABC):=T 1.889726e+02=T 90.00000=T Traj:=T positionsangstrom=T Step:=T 0=T Bead:=T pbc="F F F"
C      -48.39360000     -30.34860000     -71.26710000
C      -46.99310000     -30.23280000     -71.43650000
C      -46.34310000     -30.76160000     -72.53730000
C      -47.02550000     -31.33720000     -73.65470000
C      -48.44590000     -31.40100000     -73.52130000
C      -49.08930000     -31.05350000     -72.32550000
H      -48.86330000     -29.84890000     -70.40890000
H      -45.28350000     -30.76560000     -72.50410000
H      -48.93670000     -31.93580000     -74.35300000
H      -50.16150000     -31.22730000     -72.23010000
C      -46.27830000     -31.82350000     -74.88770000
H      -46.25100000     -30.95570000     -75.52900000
H      -46.83250000     -32.49410000     -75.52500000
C      -46.18090000     -29.70970000     -70.25090000
H      -46.13170000     -28.63020000     -70.20900000
H      -46.75880000     -29.96720000     -69.35780000
S      -44.53940000     -32.29770000     -74.63900000
S      -44.42330000     -30.35580000     -69.95840000
C      -45.01680000     -33.61980000     -73.38650000
H      -45.73740000     -33.22840000     -72.61500000
H      -45.53970000     -34.44910000     -73.88060000
C      -44.79360000     -32.22030000     -69.61640000
H      -45.42280000     -32.61960000     -70.35630000
H      -45.20810000     -32.40720000     -68.60220000
C      -43.44810000     -32.95700000     -69.65760000
H      -42.87720000     -32.91480000     -70.59500000
H      -42.68540000     -32.63140000     -68.88100000
C      -43.80940000     -34.29050000     -72.71410000
H      -43.19190000     -33.57900000     -72.15120000
H      -43.21260000     -34.79170000     -73.44920000
C      -44.26060000     -35.42680000     -71.77620000
C      -44.96180000     -36.51850000     -72.28830000
C      -44.21820000     -35.42560000     -70.33400000
H      -44.97770000     -36.75250000     -73.30610000
C      -44.60750000     -36.65290000     -69.77900000
C      -43.81740000     -34.46320000     -69.32030000
C      -43.97110000     -34.93670000     -68.07500000
S      -45.22100000     -37.71750000     -71.06370000
S      -44.55120000     -36.57960000     -68.00270000
H      -43.80100000     -34.38940000     -67.09490000
