40
Properties=species:S:1:pos:R:3 #=T CELL(abcABC):=T 1.889726e+02=T 90.00000=T Traj:=T positionsangstrom=T Step:=T 0=T Bead:=T pbc="F F F"
C      -48.22780000     -30.28410000     -71.15650000
C      -46.84800000     -30.04410000     -71.43950000
C      -46.29640000     -30.38030000     -72.68410000
C      -47.12210000     -31.21590000     -73.44450000
C      -48.45900000     -31.46900000     -73.18280000
C      -49.07670000     -30.88880000     -72.03040000
H      -48.62350000     -29.71240000     -70.33060000
H      -45.24930000     -30.06280000     -73.04500000
H      -48.93150000     -32.19520000     -73.83180000
H      -50.17910000     -30.99490000     -71.85560000
C      -46.57770000     -31.65390000     -74.77640000
H      -46.26230000     -30.85080000     -75.46200000
H      -47.28960000     -32.29870000     -75.35970000
C      -46.00100000     -29.27630000     -70.39940000
H      -45.80310000     -28.30060000     -70.75670000
H      -46.49670000     -29.21470000     -69.40520000
S      -44.98080000     -32.59150000     -74.59770000
S      -44.31250000     -30.25990000     -70.26930000
C      -45.30190000     -33.96790000     -73.40580000
H      -46.01880000     -33.61200000     -72.64380000
H      -45.86020000     -34.79160000     -73.98540000
C      -44.74350000     -32.12330000     -70.18700000
H      -45.12330000     -32.30200000     -71.18010000
H      -45.53040000     -32.26330000     -69.49090000
C      -43.49820000     -32.95320000     -69.87080000
H      -42.98370000     -33.03620000     -70.83500000
H      -42.76130000     -32.56760000     -69.14660000
C      -43.95760000     -34.53020000     -72.84030000
H      -43.29630000     -33.71390000     -72.50750000
H      -43.35760000     -34.88910000     -73.66440000
C      -44.30880000     -35.60820000     -71.77620000
C      -44.55200000     -36.93360000     -72.10180000
C      -44.29570000     -35.40740000     -70.36350000
H      -44.74780000     -37.42470000     -73.06590000
C      -44.72960000     -36.60790000     -69.68600000
C      -43.94380000     -34.35250000     -69.44010000
C      -43.98000000     -34.75330000     -68.12950000
S      -44.79670000     -37.98010000     -70.72040000
S      -44.53450000     -36.42860000     -67.95620000
H      -43.70470000     -34.20370000     -67.28220000
