40
Properties=species:S:1:pos:R:3 #=T CELL(abcABC):=T 1.889726e+02=T 90.00000=T Traj:=T positionsangstrom=T Step:=T 0=T Bead:=T pbc="F F F"
C      -48.31800000     -30.54630000     -71.37300000
C      -46.91570000     -30.23930000     -71.50180000
C      -46.21350000     -30.54540000     -72.70030000
C      -46.90670000     -31.10350000     -73.78980000
C      -48.28860000     -31.34960000     -73.65810000
C      -48.99300000     -31.16350000     -72.44510000
H      -48.63400000     -30.39680000     -70.39670000
H      -45.15490000     -30.38100000     -72.70830000
H      -48.83860000     -31.67670000     -74.56550000
H      -50.03310000     -31.50680000     -72.45340000
C      -46.19780000     -31.34210000     -75.11080000
H      -45.86500000     -30.46580000     -75.73640000
H      -46.75170000     -32.10930000     -75.76160000
C      -46.18420000     -29.71280000     -70.24200000
H      -45.92100000     -28.64930000     -70.37710000
H      -46.85750000     -29.75860000     -69.33990000
S      -44.56750000     -32.24030000     -74.60490000
S      -44.52500000     -30.47050000     -69.80150000
C      -45.13060000     -33.72580000     -73.50230000
H      -45.84190000     -33.28050000     -72.84140000
H      -45.77700000     -34.40420000     -74.09420000
C      -44.76530000     -32.16360000     -69.29120000
H      -45.46260000     -32.61100000     -70.06530000
H      -45.26840000     -32.26000000     -68.35070000
C      -43.45040000     -33.00160000     -69.28690000
H      -42.91150000     -32.70290000     -70.15180000
H      -42.84530000     -32.61190000     -68.38460000
C      -43.92920000     -34.30700000     -72.75210000
H      -43.38060000     -33.50460000     -72.23950000
H      -43.19640000     -34.62040000     -73.49930000
C      -44.34370000     -35.40420000     -71.80220000
C      -44.96460000     -36.56020000     -72.26890000
C      -44.27460000     -35.38370000     -70.34710000
H      -45.03360000     -36.80180000     -73.33560000
C      -44.72470000     -36.56200000     -69.80230000
C      -43.78200000     -34.51020000     -69.24100000
C      -43.81700000     -35.07560000     -68.04440000
S      -45.30060000     -37.73870000     -71.02500000
S      -44.52970000     -36.71860000     -68.09840000
H      -43.53670000     -34.68350000     -67.06720000
