40
Properties=species:S:1:pos:R:3 #=T CELL(abcABC):=T 1.889726e+02=T 90.00000=T Traj:=T positionsangstrom=T Step:=T 0=T Bead:=T pbc="F F F"
C      -47.59840000     -32.00020000     -74.20380000
C      -47.68070000     -32.23660000     -72.81340000
C      -47.06580000     -31.43730000     -71.81970000
C      -46.21890000     -30.42050000     -72.36140000
C      -46.00390000     -30.25020000     -73.75080000
C      -46.70080000     -31.02870000     -74.68680000
H      -48.26860000     -32.56990000     -74.87490000
H      -47.02390000     -31.66760000     -70.74700000
H      -45.35010000     -29.42630000     -74.13100000
H      -46.71840000     -30.82110000     -75.77850000
C      -45.46010000     -29.40560000     -71.50270000
H      -45.80190000     -29.42840000     -70.43730000
H      -45.72670000     -28.34560000     -71.80420000
C      -48.51140000     -33.45580000     -72.35110000
H      -48.70470000     -33.38120000     -71.31590000
H      -49.50390000     -33.37660000     -72.85030000
S      -43.61160000     -29.49540000     -71.40430000
S      -47.87240000     -35.22080000     -72.52760000
C      -43.43860000     -30.99230000     -70.41130000
H      -42.63460000     -30.73060000     -69.70810000
H      -44.34100000     -31.18470000     -69.79510000
C      -46.38470000     -35.22200000     -73.58160000
H      -46.57600000     -34.44010000     -74.34000000
H      -46.36630000     -36.24710000     -74.06290000
C      -45.07710000     -34.90730000     -72.85680000
H      -44.22640000     -35.28090000     -73.43880000
H      -44.92680000     -33.89010000     -72.86660000
C      -43.15980000     -32.38110000     -71.10070000
H      -42.17180000     -32.29950000     -71.47980000
H      -43.77430000     -32.50640000     -71.93040000
C      -43.41500000     -33.59040000     -70.15770000
C      -43.00360000     -33.49470000     -68.81520000
C      -44.07250000     -34.86140000     -70.44400000
H      -42.58330000     -32.69760000     -68.32040000
C      -44.10690000     -35.64580000     -69.28070000
C      -44.90480000     -35.44930000     -71.45840000
C      -45.48590000     -36.69260000     -71.07960000
S      -43.47750000     -34.95350000     -67.84520000
S      -45.07450000     -37.10280000     -69.42570000
H      -45.87780000     -37.47150000     -71.78160000
