40
Properties=species:S:1:pos:R:3 #=T CELL(abcABC):=T 1.889726e+02=T 90.00000=T Traj:=T positionsangstrom=T Step:=T 0=T Bead:=T pbc="F F F"
C      -43.10650000     -32.16450000     -67.80420000
C      -44.47460000     -32.25560000     -68.00670000
C      -45.07250000     -31.46800000     -68.97820000
C      -44.31530000     -30.53340000     -69.75720000
C      -42.91170000     -30.57980000     -69.60220000
C      -42.34210000     -31.41220000     -68.64870000
H      -42.72810000     -32.71660000     -66.92060000
H      -46.16190000     -31.66460000     -69.16640000
H      -42.26640000     -30.03970000     -70.36640000
H      -41.22020000     -31.41670000     -68.63120000
C      -44.90040000     -29.60640000     -70.84510000
H      -44.84130000     -28.57830000     -70.54430000
H      -46.02300000     -29.79980000     -70.94030000
C      -45.36970000     -33.19150000     -67.13060000
H      -45.08910000     -33.03740000     -66.03290000
H      -46.46050000     -32.98270000     -67.21670000
S      -44.02450000     -29.74880000     -72.47850000
S      -45.11810000     -35.01340000     -67.62430000
C      -45.02050000     -31.07550000     -73.17870000
H      -46.04960000     -30.62700000     -73.10130000
H      -44.78000000     -31.11980000     -74.20250000
C      -45.96680000     -34.97600000     -69.28730000
H      -46.19130000     -33.87480000     -69.47200000
H      -46.76800000     -35.68530000     -69.35710000
C      -45.09940000     -35.40030000     -70.47140000
H      -44.34400000     -34.72120000     -70.60620000
H      -44.59960000     -36.32230000     -70.29040000
C      -44.94000000     -32.40600000     -72.54620000
H      -45.14970000     -32.25880000     -71.47180000
H      -43.86360000     -32.82690000     -72.49500000
C      -45.70170000     -33.46400000     -73.28600000
C      -46.12800000     -33.17960000     -74.56430000
C      -46.07410000     -34.78470000     -72.93610000
H      -45.99810000     -32.26400000     -75.17680000
C      -46.88310000     -35.41520000     -73.89120000
C      -45.93210000     -35.57500000     -71.74460000
C      -46.27240000     -36.90360000     -72.01860000
S      -47.00760000     -34.47350000     -75.31030000
S      -47.17070000     -37.13380000     -73.54290000
H      -46.22480000     -37.69420000     -71.25370000
