40
Properties=species:S:1:pos:R:3 #=T CELL(abcABC):=T 1.889726e+02=T 90.00000=T Traj:=T positionsangstrom=T Step:=T 0=T Bead:=T pbc="F F F"
C      -48.01820000     -30.73650000     -71.53710000
C      -46.74510000     -30.31630000     -71.12020000
C      -45.75530000     -30.51160000     -72.14000000
C      -45.92860000     -31.00650000     -73.45230000
C      -47.25230000     -31.37300000     -73.77760000
C      -48.28880000     -31.16170000     -72.84560000
H      -48.86320000     -30.60830000     -70.74510000
H      -44.70190000     -30.30040000     -71.89790000
H      -47.46750000     -31.87600000     -74.78440000
H      -49.34040000     -31.53920000     -73.06320000
C      -44.83490000     -31.12680000     -74.46300000
H      -43.90600000     -30.78340000     -74.01240000
H      -45.09620000     -30.50880000     -75.35440000
C      -46.40930000     -29.68420000     -69.76270000
H      -46.27800000     -28.55720000     -69.85550000
H      -47.22880000     -29.82400000     -69.08040000
S      -44.57160000     -32.70740000     -75.33090000
S      -44.91210000     -30.27510000     -68.96730000
C      -45.19910000     -33.93050000     -74.03040000
H      -46.19860000     -33.68890000     -73.69710000
H      -45.19860000     -34.95200000     -74.47100000
C      -45.16110000     -32.08260000     -68.96340000
H      -45.99040000     -32.28080000     -69.64020000
H      -45.60190000     -32.42130000     -67.97180000
C      -43.88420000     -32.96950000     -69.28760000
H      -43.47750000     -32.65140000     -70.19430000
H      -43.18170000     -32.69540000     -68.45180000
C      -44.32300000     -34.03460000     -72.73390000
H      -44.60420000     -33.12580000     -72.11180000
H      -43.27180000     -34.02870000     -72.97000000
C      -44.62870000     -35.28090000     -71.94340000
C      -45.07690000     -36.48320000     -72.47360000
C      -44.53860000     -35.31390000     -70.51380000
H      -45.18500000     -36.86870000     -73.52020000
C      -44.83630000     -36.62380000     -70.02830000
C      -44.26060000     -34.42750000     -69.38320000
C      -44.30850000     -35.10300000     -68.15370000
S      -45.37000000     -37.64680000     -71.26860000
S      -44.77910000     -36.77030000     -68.24200000
H      -43.98660000     -34.66460000     -67.21900000
