40
Properties=species:S:1:pos:R:3 #=T CELL(abcABC):=T 1.889726e+02=T 90.00000=T Traj:=T positionsangstrom=T Step:=T 0=T Bead:=T pbc="F F F"
C      -43.86330000     -34.64340000     -67.97420000
C      -45.26530000     -34.79050000     -68.19380000
C      -45.73550000     -35.71960000     -69.12340000
C      -44.71400000     -36.40280000     -69.89140000
C      -43.31460000     -36.25760000     -69.69320000
C      -42.92510000     -35.40580000     -68.67300000
H      -43.51080000     -33.88690000     -67.27660000
H      -46.79950000     -35.96040000     -69.32930000
H      -42.59440000     -36.87650000     -70.21580000
H      -41.82900000     -35.26330000     -68.39880000
C      -45.06890000     -37.29920000     -71.05480000
H      -45.75830000     -38.07180000     -70.71540000
H      -44.12790000     -37.67440000     -71.38740000
C      -46.23120000     -33.88280000     -67.35830000
H      -47.32240000     -34.01330000     -67.65050000
H      -46.29110000     -34.31470000     -66.34480000
S      -45.94810000     -36.32090000     -72.47900000
S      -45.78510000     -32.09540000     -67.43470000
C      -44.40970000     -35.69750000     -73.21390000
H      -43.61540000     -36.45150000     -73.09600000
H      -44.53480000     -35.61740000     -74.24140000
C      -46.56300000     -31.74250000     -69.12420000
H      -46.53600000     -30.64900000     -69.18460000
H      -47.55650000     -32.23560000     -69.04780000
C      -45.74990000     -32.27180000     -70.29910000
H      -44.68350000     -32.50920000     -70.17830000
H      -46.13570000     -33.23160000     -70.59560000
C      -43.99420000     -34.26480000     -72.56280000
H      -42.87710000     -34.19930000     -72.59610000
H      -44.25040000     -34.16500000     -71.44040000
C      -44.58190000     -33.10840000     -73.34490000
C      -44.34030000     -33.02200000     -74.68420000
C      -45.38020000     -31.97940000     -72.85460000
H      -43.76580000     -33.75030000     -75.21890000
C      -45.67150000     -31.05860000     -73.85960000
C      -45.91020000     -31.51190000     -71.55220000
C      -46.57010000     -30.33400000     -71.71680000
S      -44.97340000     -31.55400000     -75.45310000
S      -46.67700000     -29.80350000     -73.38900000
H      -47.21940000     -29.83820000     -71.00600000
