40
Properties=species:S:1:pos:R:3 #=T CELL(abcABC):=T 1.889726e+02=T 90.00000=T Traj:=T positionsangstrom=T Step:=T 0=T Bead:=T pbc="F F F"
C      -43.51740000     -36.42130000     -72.83250000
C      -44.91200000     -36.23650000     -73.07890000
C      -45.79940000     -36.32800000     -72.06350000
C      -45.37490000     -36.65850000     -70.76050000
C      -44.05260000     -36.74300000     -70.43130000
C      -43.15210000     -36.66190000     -71.48350000
H      -42.90590000     -36.48160000     -73.67680000
H      -46.89890000     -36.26450000     -72.35670000
H      -43.86350000     -37.00480000     -69.41560000
H      -42.09670000     -36.74730000     -71.23140000
C      -46.48550000     -36.83950000     -69.72710000
H      -46.04490000     -36.83880000     -68.69840000
H      -47.03320000     -37.76750000     -69.94750000
C      -45.46230000     -36.05940000     -74.48450000
H      -44.69550000     -36.36920000     -75.20950000
H      -46.41540000     -36.55580000     -74.53160000
S      -47.76220000     -35.47740000     -69.79220000
S      -45.86130000     -34.25510000     -74.91220000
C      -46.44210000     -34.18430000     -69.67550000
H      -45.67250000     -34.42020000     -68.88370000
H      -45.89530000     -34.21410000     -70.57920000
C      -45.19140000     -33.17790000     -73.66440000
H      -44.40830000     -32.60050000     -73.97110000
H      -44.74390000     -33.80850000     -72.85100000
C      -46.18310000     -32.23080000     -72.93680000
H      -46.92490000     -31.75610000     -73.67520000
H      -46.96810000     -32.85880000     -72.38830000
C      -47.10080000     -32.80910000     -69.57320000
H      -47.83350000     -32.71590000     -68.77870000
H      -47.61680000     -32.63000000     -70.52150000
C      -46.06900000     -31.68450000     -69.50360000
C      -45.57710000     -31.23920000     -68.33940000
C      -45.24500000     -31.22090000     -70.63900000
H      -46.12340000     -31.39210000     -67.39160000
C      -44.29220000     -30.28640000     -70.21210000
C      -45.33650000     -31.27180000     -72.06810000
C      -44.50450000     -30.36580000     -72.73180000
S      -44.28720000     -30.04490000     -68.45090000
S      -43.47150000     -29.54690000     -71.58980000
H      -44.40410000     -30.35170000     -73.79390000
