40
Properties=species:S:1:pos:R:3 #=T CELL(abcABC):=T 1.889726e+02=T 90.00000=T Traj:=T positionsangstrom=T Step:=T 0=T Bead:=T pbc="F F F"
C      -44.34290000     -31.59180000     -67.85480000
C      -45.65840000     -32.13210000     -68.10350000
C      -46.43460000     -31.43210000     -69.07360000
C      -45.82690000     -30.38510000     -69.78060000
C      -44.54090000     -29.93580000     -69.49990000
C      -43.80400000     -30.46240000     -68.45390000
H      -43.68360000     -32.11070000     -67.16120000
H      -47.37190000     -31.90270000     -69.33540000
H      -44.24830000     -29.06540000     -70.13030000
H      -42.83880000     -29.98130000     -68.16000000
C      -46.59830000     -29.65950000     -70.84510000
H      -46.84890000     -28.67100000     -70.39740000
H      -47.59470000     -30.06110000     -70.88970000
C      -46.19640000     -33.39380000     -67.43260000
H      -46.36110000     -33.14980000     -66.40910000
H      -47.11040000     -33.93650000     -67.87990000
S      -45.98750000     -29.44580000     -72.52460000
S      -44.96210000     -34.86400000     -67.44130000
C      -46.17770000     -31.13850000     -73.29220000
H      -47.23090000     -31.45560000     -73.41890000
H      -45.68970000     -30.93810000     -74.25800000
C      -45.22000000     -35.74570000     -69.05490000
H      -46.22500000     -36.38880000     -69.11150000
H      -44.41120000     -36.48340000     -69.04540000
C      -45.09410000     -34.91820000     -70.33480000
H      -46.09940000     -34.41150000     -70.39340000
H      -44.36960000     -34.12830000     -70.22970000
C      -45.46000000     -32.23360000     -72.47940000
H      -46.06810000     -32.41190000     -71.64110000
H      -44.57340000     -31.79530000     -72.11350000
C      -45.37330000     -33.53490000     -73.34410000
C      -45.36430000     -33.49630000     -74.71800000
C      -45.16240000     -34.89070000     -72.91110000
H      -45.26730000     -32.57220000     -75.27590000
C      -45.02400000     -35.79090000     -73.94510000
C      -44.94490000     -35.64240000     -71.61700000
C      -44.72270000     -36.95930000     -71.82030000
S      -45.15550000     -35.01300000     -75.52940000
S      -44.80980000     -37.45390000     -73.52240000
H      -44.54560000     -37.70360000     -71.05010000
