40
Properties=species:S:1:pos:R:3 #=T CELL(abcABC):=T 1.889726e+02=T 90.00000=T Traj:=T positionsangstrom=T Step:=T 0=T Bead:=T pbc="F F F"
C      -42.45790000     -31.89370000     -72.40450000
C      -42.50600000     -32.18210000     -71.06660000
C      -43.16180000     -31.33810000     -70.20340000
C      -43.93120000     -30.27620000     -70.71450000
C      -43.94630000     -29.99650000     -72.09550000
C      -43.19870000     -30.79680000     -72.96760000
H      -41.92190000     -32.50310000     -73.15780000
H      -43.16590000     -31.55210000     -69.12640000
H      -44.56910000     -29.17460000     -72.46040000
H      -43.04100000     -30.57700000     -74.06090000
C      -44.69350000     -29.43320000     -69.77060000
H      -45.16770000     -28.62610000     -70.31630000
H      -44.19830000     -29.00490000     -68.92380000
C      -41.51300000     -33.27530000     -70.44020000
H      -40.75400000     -33.70580000     -71.13570000
H      -40.90140000     -32.78410000     -69.65110000
S      -46.01290000     -30.52330000     -68.84760000
S      -42.27300000     -34.82460000     -69.67390000
C      -46.97290000     -31.51620000     -70.03560000
H      -47.70980000     -32.11180000     -69.42350000
H      -47.68140000     -30.86020000     -70.54180000
C      -43.95030000     -35.06610000     -70.51340000
H      -44.72240000     -34.47250000     -70.00010000
H      -44.14830000     -36.08820000     -70.26630000
C      -44.00100000     -34.90770000     -72.03950000
H      -43.90380000     -33.81150000     -72.21070000
H      -43.16780000     -35.43020000     -72.55730000
C      -46.20930000     -32.46670000     -70.87990000
H      -45.46040000     -32.86270000     -70.20250000
H      -45.57970000     -31.84790000     -71.56310000
C      -47.16240000     -33.53250000     -71.43070000
C      -48.53220000     -33.47690000     -71.39420000
C      -46.63560000     -34.76250000     -72.13680000
H      -49.10260000     -32.71980000     -70.89170000
C      -47.66310000     -35.50920000     -72.56290000
C      -45.35430000     -35.36260000     -72.46300000
C      -45.49440000     -36.57330000     -73.14390000
S      -49.26750000     -34.88350000     -72.23160000
S      -47.21860000     -36.96990000     -73.47310000
H      -44.66470000     -37.17280000     -73.40860000
