40
Properties=species:S:1:pos:R:3 #=T CELL(abcABC):=T 1.889726e+02=T 90.00000=T Traj:=T positionsangstrom=T Step:=T 0=T Bead:=T pbc="F F F"
C      -43.60200000     -36.33020000     -72.81970000
C      -45.01730000     -36.20200000     -73.15910000
C      -45.92610000     -36.44830000     -72.12500000
C      -45.49460000     -36.95990000     -70.82630000
C      -44.11100000     -37.09930000     -70.56890000
C      -43.13080000     -36.74460000     -71.50870000
H      -42.92700000     -36.17420000     -73.59720000
H      -46.97460000     -36.31070000     -72.22820000
H      -43.81290000     -37.48220000     -69.55290000
H      -42.08640000     -36.92000000     -71.38750000
C      -46.53050000     -37.07150000     -69.75510000
H      -46.06760000     -37.31860000     -68.80580000
H      -47.22760000     -37.88430000     -69.97740000
C      -45.31170000     -35.87220000     -74.59260000
H      -44.38590000     -35.95000000     -75.22900000
H      -45.92950000     -36.60640000     -75.05440000
S      -47.57780000     -35.51860000     -69.63050000
S      -46.19740000     -34.27190000     -74.82280000
C      -46.38490000     -34.12240000     -69.68930000
H      -45.71900000     -34.17100000     -68.82690000
H      -45.67230000     -34.21650000     -70.55800000
C      -45.14740000     -33.12600000     -73.69120000
H      -44.54250000     -32.49840000     -74.39290000
H      -44.39560000     -33.79420000     -73.08430000
C      -46.08120000     -32.26520000     -72.89940000
H      -46.66760000     -31.74250000     -73.58600000
H      -46.70390000     -32.80660000     -72.19700000
C      -47.09730000     -32.68730000     -69.46480000
H      -47.55560000     -32.76570000     -68.46620000
H      -47.90210000     -32.49140000     -70.20310000
C      -46.00180000     -31.65270000     -69.50280000
C      -45.52540000     -31.13020000     -68.32470000
C      -45.23300000     -31.20220000     -70.64970000
H      -46.05990000     -31.31180000     -67.40020000
C      -44.29600000     -30.25600000     -70.25170000
C      -45.26600000     -31.26070000     -72.09380000
C      -44.42290000     -30.33850000     -72.74310000
S      -44.16810000     -29.97700000     -68.51210000
S      -43.53120000     -29.43040000     -71.59390000
H      -44.38590000     -30.17830000     -73.78380000
