40
Properties=species:S:1:pos:R:3 #=T CELL(abcABC):=T 1.889726e+02=T 90.00000=T Traj:=T positionsangstrom=T Step:=T 0=T Bead:=T pbc="F F F"
C      -43.40220000     -36.36840000     -72.69820000
C      -44.74590000     -36.44440000     -73.17270000
C      -45.80950000     -36.47660000     -72.23970000
C      -45.50580000     -36.63300000     -70.88410000
C      -44.19040000     -36.59470000     -70.38700000
C      -43.15670000     -36.51300000     -71.30770000
H      -42.58840000     -36.37600000     -73.50180000
H      -46.80890000     -36.53140000     -72.77380000
H      -43.95950000     -36.46770000     -69.30600000
H      -42.08120000     -36.53570000     -71.05780000
C      -46.68850000     -36.84350000     -69.91100000
H      -46.27870000     -37.11250000     -68.93250000
H      -47.30820000     -37.74160000     -70.18770000
C      -44.98030000     -36.08770000     -74.57640000
H      -44.11230000     -36.23780000     -75.26210000
H      -45.69240000     -36.79820000     -75.07410000
S      -47.81020000     -35.37890000     -69.83850000
S      -45.71110000     -34.41700000     -74.73720000
C      -46.70250000     -34.02960000     -69.49450000
H      -46.22050000     -33.99480000     -68.52890000
H      -45.78030000     -34.23510000     -70.09820000
C      -44.99530000     -33.58940000     -73.32880000
H      -43.86520000     -33.22080000     -73.57830000
H      -44.87950000     -34.10700000     -72.37240000
C      -45.81250000     -32.27280000     -73.09360000
H      -45.88320000     -31.78850000     -74.11480000
H      -46.74470000     -32.56420000     -72.71890000
C      -47.23170000     -32.76750000     -70.01190000
H      -48.12140000     -32.53690000     -69.47960000
H      -47.54800000     -32.91020000     -71.03090000
C      -46.24070000     -31.62550000     -69.76520000
C      -46.05570000     -31.11700000     -68.54560000
C      -45.26670000     -31.21050000     -70.72560000
H      -46.52940000     -31.33680000     -67.56900000
C      -44.40780000     -30.22580000     -70.16650000
C      -45.07010000     -31.37230000     -72.14680000
C      -44.14600000     -30.47280000     -72.62790000
S      -44.67810000     -29.94800000     -68.43590000
S      -43.36340000     -29.49180000     -71.36160000
H      -43.84780000     -30.40920000     -73.69120000
