40
Properties=species:S:1:pos:R:3 #=T CELL(abcABC):=T 1.889726e+02=T 90.00000=T Traj:=T positionsangstrom=T Step:=T 0=T Bead:=T pbc="F F F"
C      -43.67930000     -36.55000000     -73.04410000
C      -44.99170000     -36.27650000     -73.38690000
C      -45.98730000     -36.45660000     -72.39340000
C      -45.70440000     -36.91900000     -71.08080000
C      -44.37150000     -37.21620000     -70.77430000
C      -43.41950000     -37.14900000     -71.82190000
H      -42.94520000     -36.53940000     -73.76280000
H      -47.05370000     -36.22010000     -72.71840000
H      -44.26130000     -37.72730000     -69.82210000
H      -42.47050000     -37.66760000     -71.55760000
C      -46.85390000     -37.09000000     -70.10750000
H      -46.53430000     -37.87120000     -69.43670000
H      -47.76890000     -37.47930000     -70.57760000
C      -45.45900000     -35.68090000     -74.70710000
H      -44.67380000     -35.32350000     -75.39640000
H      -45.99730000     -36.38130000     -75.38660000
S      -47.32500000     -35.60830000     -69.19070000
S      -46.68790000     -34.33150000     -74.33150000
C      -46.08980000     -34.31320000     -69.59040000
H      -45.21420000     -34.48830000     -69.01960000
H      -45.82680000     -34.54820000     -70.66570000
C      -45.46030000     -33.08660000     -73.81810000
H      -45.02360000     -32.67450000     -74.72910000
H      -44.59490000     -33.56880000     -73.23220000
C      -46.11600000     -32.03450000     -72.91640000
H      -46.74030000     -31.44680000     -73.51310000
H      -46.75230000     -32.61260000     -72.19470000
C      -46.65460000     -32.94920000     -69.41910000
H      -47.09400000     -32.95030000     -68.42090000
H      -47.48000000     -32.70760000     -70.08390000
C      -45.61970000     -31.75020000     -69.50850000
C      -45.11450000     -31.22230000     -68.32690000
C      -45.01200000     -31.11730000     -70.71050000
H      -45.39050000     -31.63860000     -67.36340000
C      -44.18020000     -30.12600000     -70.28330000
C      -45.16610000     -31.14720000     -72.11470000
C      -44.46340000     -30.14070000     -72.72990000
S      -43.98280000     -29.87060000     -68.53900000
S      -43.52550000     -29.18380000     -71.61990000
H      -44.52710000     -29.81860000     -73.74130000
