40
Properties=species:S:1:pos:R:3 #=T CELL(abcABC):=T 1.889726e+02=T 90.00000=T Traj:=T positionsangstrom=T Step:=T 0=T Bead:=T pbc="F F F"
C      -43.49710000     -36.44760000     -72.79730000
C      -44.86090000     -36.46550000     -73.21910000
C      -45.84330000     -36.67060000     -72.17680000
C      -45.48670000     -36.73490000     -70.83280000
C      -44.07850000     -36.68820000     -70.42660000
C      -43.11240000     -36.57920000     -71.44420000
H      -42.82160000     -36.24070000     -73.66320000
H      -46.95400000     -36.53160000     -72.57870000
H      -43.75990000     -36.63380000     -69.38800000
H      -42.00930000     -36.34190000     -71.25640000
C      -46.52920000     -36.80870000     -69.69520000
H      -46.05370000     -36.77400000     -68.72200000
H      -47.05860000     -37.77180000     -69.79540000
C      -45.20970000     -36.16960000     -74.58900000
H      -44.38280000     -36.37140000     -75.26930000
H      -46.05320000     -36.80850000     -74.93810000
S      -47.81340000     -35.47400000     -69.74230000
S      -45.67660000     -34.37550000     -74.87080000
C      -46.70980000     -33.93560000     -69.58840000
H      -46.40760000     -33.95540000     -68.52130000
H      -45.94970000     -34.11220000     -70.37170000
C      -44.98440000     -33.33030000     -73.49800000
H      -44.08630000     -32.88300000     -73.99750000
H      -44.71070000     -33.98280000     -72.71170000
C      -46.00500000     -32.28640000     -73.06210000
H      -46.46390000     -31.74230000     -73.89340000
H      -46.83660000     -32.70830000     -72.59100000
C      -47.37190000     -32.62420000     -69.69190000
H      -48.03750000     -32.58050000     -68.82550000
H      -48.00890000     -32.45300000     -70.62090000
C      -46.23200000     -31.58380000     -69.54760000
C      -45.70700000     -31.15510000     -68.39440000
C      -45.47020000     -31.04030000     -70.70890000
H      -46.01760000     -31.51800000     -67.36340000
C      -44.51010000     -30.10820000     -70.23680000
C      -45.23660000     -31.28770000     -72.13840000
C      -44.27790000     -30.40230000     -72.66740000
S      -44.32250000     -30.06610000     -68.49860000
S      -43.43930000     -29.47700000     -71.43280000
H      -44.01780000     -30.39290000     -73.70740000
