40
Properties=species:S:1:pos:R:3 #=T CELL(abcABC):=T 1.889726e+02=T 90.00000=T Traj:=T positionsangstrom=T Step:=T 0=T Bead:=T pbc="F F F"
C      -45.83630000     -29.45210000     -69.62110000
C      -45.13680000     -30.61580000     -69.26280000
C      -44.11450000     -31.09760000     -70.08780000
C      -43.82910000     -30.43090000     -71.27050000
C      -44.49550000     -29.22610000     -71.62370000
C      -45.49410000     -28.76360000     -70.81670000
H      -46.71690000     -29.24280000     -68.92230000
H      -43.61420000     -31.99300000     -69.83130000
H      -44.20480000     -28.80170000     -72.57470000
H      -46.08170000     -28.00740000     -71.15820000
C      -42.71010000     -31.02470000     -72.07480000
H      -42.32050000     -31.90680000     -71.58380000
H      -41.82390000     -30.40830000     -72.12790000
C      -45.58270000     -31.21880000     -67.93700000
H      -45.48700000     -30.56870000     -67.12210000
H      -46.64710000     -31.41000000     -68.04420000
S      -43.05070000     -31.38290000     -73.83090000
S      -44.70360000     -32.74450000     -67.53990000
C      -43.49190000     -33.17660000     -73.80920000
H      -43.80670000     -33.35280000     -74.86090000
H      -42.57010000     -33.79870000     -73.66260000
C      -45.89970000     -33.96470000     -68.29480000
H      -46.91590000     -33.57510000     -68.17550000
H      -45.80440000     -34.91400000     -67.77600000
C      -45.55710000     -34.09900000     -69.81580000
H      -45.90660000     -33.14910000     -70.21260000
H      -44.46670000     -34.19340000     -69.98060000
C      -44.65220000     -33.44080000     -72.82500000
H      -45.38350000     -32.57780000     -72.93580000
H      -44.36460000     -33.46640000     -71.70620000
C      -45.42360000     -34.71400000     -73.06120000
C      -45.54780000     -35.36540000     -74.30840000
C      -46.05800000     -35.39000000     -71.99430000
H      -45.26940000     -35.09300000     -75.33000000
C      -46.74010000     -36.51990000     -72.46440000
C      -46.24320000     -35.21350000     -70.59600000
C      -47.12620000     -36.10440000     -70.03650000
S      -46.63330000     -36.79650000     -74.14960000
S      -47.64370000     -37.31880000     -71.24270000
H      -47.55260000     -36.07320000     -69.00290000
