40
Properties=species:S:1:pos:R:3 #=T CELL(abcABC):=T 1.889726e+02=T 90.00000=T Traj:=T positionsangstrom=T Step:=T 0=T Bead:=T pbc="F F F"
C      -46.10520000     -29.72270000     -69.89200000
C      -45.16840000     -30.58000000     -69.35900000
C      -44.07980000     -30.99750000     -70.16720000
C      -43.93770000     -30.37860000     -71.43690000
C      -44.82380000     -29.37900000     -71.91180000
C      -45.96040000     -29.12430000     -71.13440000
H      -46.89860000     -29.47500000     -69.29980000
H      -43.32220000     -31.67470000     -69.85520000
H      -44.62980000     -28.79530000     -72.84390000
H      -46.68010000     -28.36880000     -71.55020000
C      -42.69430000     -30.81060000     -72.30390000
H      -42.21240000     -31.64300000     -71.75900000
H      -42.04330000     -29.93260000     -72.24620000
C      -45.21020000     -30.96950000     -67.88630000
H      -44.47340000     -30.34610000     -67.44390000
H      -46.15380000     -30.71140000     -67.40610000
S      -43.15020000     -31.29370000     -73.99310000
S      -44.73540000     -32.70540000     -67.33490000
C      -43.69810000     -33.05880000     -73.84190000
H      -43.87700000     -33.42730000     -74.85440000
H      -42.90210000     -33.66720000     -73.33680000
C      -45.90230000     -33.80450000     -68.26060000
H      -46.98730000     -33.61960000     -68.02620000
H      -45.72990000     -34.78650000     -67.86360000
C      -45.68600000     -33.87100000     -69.81990000
H      -46.14600000     -32.97350000     -70.18840000
H      -44.63470000     -33.67000000     -70.13540000
C      -44.94210000     -33.24520000     -72.99610000
H      -45.73690000     -32.53370000     -73.40770000
H      -44.83160000     -32.97500000     -71.99030000
C      -45.46140000     -34.69630000     -73.03330000
C      -45.54380000     -35.42530000     -74.21830000
C      -45.97790000     -35.45820000     -71.92290000
H      -45.27400000     -35.05410000     -75.18870000
C      -46.52480000     -36.67850000     -72.31470000
C      -46.25050000     -35.15170000     -70.47060000
C      -47.05100000     -36.09070000     -69.87280000
S      -46.33890000     -36.96580000     -74.05880000
S      -47.37120000     -37.50270000     -70.98300000
H      -47.41030000     -36.20210000     -68.89580000
