40
Properties=species:S:1:pos:R:3 #=T CELL(abcABC):=T 1.889726e+02=T 90.00000=T Traj:=T positionsangstrom=T Step:=T 0=T Bead:=T pbc="F F F"
C      -44.38190000     -31.62030000     -67.92310000
C      -45.69770000     -32.10350000     -67.98410000
C      -46.44660000     -31.42340000     -68.95300000
C      -46.03490000     -30.33390000     -69.69360000
C      -44.80810000     -29.77100000     -69.39870000
C      -44.00210000     -30.40890000     -68.46080000
H      -43.61460000     -32.09760000     -67.25010000
H      -47.47860000     -31.68860000     -69.11810000
H      -44.47010000     -28.89840000     -69.88310000
H      -43.06720000     -30.02900000     -68.29670000
C      -46.95580000     -29.71690000     -70.71600000
H      -47.00450000     -28.65580000     -70.62640000
H      -47.93670000     -29.96260000     -70.48540000
C      -46.19120000     -33.29910000     -67.23160000
H      -46.18310000     -33.18340000     -66.09700000
H      -47.19790000     -33.65600000     -67.51870000
S      -46.42900000     -30.00630000     -72.48560000
S      -44.96040000     -34.69050000     -67.57620000
C      -46.17700000     -31.73090000     -72.58160000
H      -46.51020000     -32.35560000     -71.74300000
H      -46.78510000     -32.02110000     -73.44430000
C      -45.23630000     -35.41230000     -69.21920000
H      -46.21780000     -35.86370000     -69.22730000
H      -44.52010000     -36.18780000     -69.25660000
C      -45.10980000     -34.56580000     -70.38760000
H      -45.93700000     -33.87900000     -70.61190000
H      -44.13140000     -34.00750000     -70.27490000
C      -44.69730000     -32.11190000     -72.91000000
H      -44.17860000     -31.89930000     -71.96190000
H      -44.33950000     -31.38950000     -73.68000000
C      -44.58370000     -33.46980000     -73.57340000
C      -44.32920000     -33.57740000     -75.00140000
C      -44.96300000     -34.71880000     -73.03090000
H      -44.15350000     -32.70110000     -75.68780000
C      -45.02130000     -35.76410000     -74.00790000
C      -45.14560000     -35.36830000     -71.73690000
C      -45.34080000     -36.74290000     -71.77020000
S      -44.63430000     -35.21900000     -75.56630000
S      -45.23580000     -37.35350000     -73.40660000
H      -45.65990000     -37.36460000     -70.97430000
