40
Properties=species:S:1:pos:R:3 #=T CELL(abcABC):=T 1.889726e+02=T 90.00000=T Traj:=T positionsangstrom=T Step:=T 0=T Bead:=T pbc="F F F"
C      -46.29000000     -29.87600000     -69.97470000
C      -45.08390000     -30.35110000     -69.38750000
C      -44.00630000     -30.62010000     -70.16230000
C      -44.07790000     -30.45970000     -71.59940000
C      -45.23560000     -29.87480000     -72.15310000
C      -46.39540000     -29.61540000     -71.31510000
H      -47.15960000     -29.58770000     -69.40590000
H      -43.10370000     -31.15530000     -69.78690000
H      -45.30770000     -29.65920000     -73.20720000
H      -47.30250000     -29.24380000     -71.71320000
C      -42.83040000     -30.80940000     -72.35130000
H      -42.34940000     -31.64400000     -71.83890000
H      -42.22450000     -29.86010000     -72.47610000
C      -45.06970000     -30.69360000     -67.91350000
H      -44.20820000     -30.15510000     -67.44830000
H      -46.00770000     -30.36250000     -67.46680000
S      -43.08720000     -31.41080000     -74.12660000
S      -44.70660000     -32.44880000     -67.45010000
C      -43.80450000     -33.11650000     -73.88390000
H      -43.96360000     -33.51290000     -74.91910000
H      -43.05390000     -33.74330000     -73.38420000
C      -46.00380000     -33.58350000     -68.33650000
H      -46.89190000     -33.29590000     -67.84460000
H      -45.66030000     -34.60950000     -67.97820000
C      -46.02970000     -33.53830000     -69.85830000
H      -46.94300000     -32.95960000     -70.09820000
H      -45.16360000     -32.99830000     -70.16560000
C      -45.07550000     -33.26170000     -73.07990000
H      -45.89110000     -32.63760000     -73.53710000
H      -44.83490000     -32.84640000     -72.09120000
C      -45.56350000     -34.70710000     -73.03790000
C      -45.49610000     -35.56400000     -74.14480000
C      -46.08990000     -35.41270000     -71.84550000
H      -45.13940000     -35.35220000     -75.08160000
C      -46.37400000     -36.72180000     -72.11690000
C      -46.26520000     -34.99870000     -70.46940000
C      -46.70980000     -36.07000000     -69.73860000
S      -46.24870000     -37.14860000     -73.85300000
S      -46.95940000     -37.52710000     -70.71570000
H      -47.13860000     -36.07870000     -68.71700000
