40
Properties=species:S:1:pos:R:3 #=T CELL(abcABC):=T 1.889726e+02=T 90.00000=T Traj:=T positionsangstrom=T Step:=T 0=T Bead:=T pbc="F F F"
C      -45.37260000     -29.81060000     -69.16990000
C      -44.65730000     -31.00260000     -68.87660000
C      -43.62250000     -31.31030000     -69.70450000
C      -43.25840000     -30.55810000     -70.85870000
C      -43.96270000     -29.31910000     -71.00970000
C      -44.99990000     -28.97250000     -70.18450000
H      -46.25460000     -29.47570000     -68.50920000
H      -43.06760000     -32.23700000     -69.55190000
H      -43.61680000     -28.62040000     -71.78240000
H      -45.56390000     -28.00800000     -70.53400000
C      -42.08480000     -31.14520000     -71.69720000
H      -41.79490000     -32.05040000     -71.20370000
H      -41.32860000     -30.38930000     -71.69010000
C      -44.95860000     -31.70170000     -67.52170000
H      -44.28530000     -31.23760000     -66.79210000
H      -45.99870000     -31.37630000     -67.22840000
S      -42.77310000     -31.32610000     -73.38950000
S      -44.72800000     -33.52030000     -67.52420000
C      -44.43730000     -32.14220000     -73.16400000
H      -45.13860000     -31.66200000     -72.39460000
H      -44.85220000     -32.07360000     -74.26620000
C      -46.02040000     -34.14800000     -68.64810000
H      -46.96200000     -33.63470000     -68.48940000
H      -46.19920000     -35.12980000     -68.21070000
C      -45.48620000     -34.42560000     -70.04420000
H      -45.40920000     -33.50630000     -70.65790000
H      -44.45990000     -34.86000000     -69.90230000
C      -44.38580000     -33.65290000     -73.08310000
H      -43.94120000     -33.98280000     -72.12760000
H      -43.61870000     -34.00430000     -73.82360000
C      -45.66370000     -34.41280000     -73.34190000
C      -46.11620000     -34.66530000     -74.60700000
C      -46.27500000     -35.32640000     -72.36050000
H      -45.77690000     -34.08600000     -75.50930000
C      -47.10150000     -36.23150000     -72.93630000
C      -46.26920000     -35.40960000     -70.90570000
C      -47.09210000     -36.35790000     -70.49340000
S      -47.35710000     -35.95640000     -74.64590000
S      -48.09520000     -37.13500000     -71.77780000
H      -47.25100000     -36.67500000     -69.47400000
