40
Properties=species:S:1:pos:R:3 #=T CELL(abcABC):=T 1.889726e+02=T 90.00000=T Traj:=T positionsangstrom=T Step:=T 0=T Bead:=T pbc="F F F"
C      -45.34070000     -30.04020000     -68.54240000
C      -44.57540000     -31.17870000     -68.41240000
C      -43.51160000     -31.42900000     -69.28630000
C      -43.22620000     -30.53890000     -70.32400000
C      -44.06700000     -29.42430000     -70.42600000
C      -45.13470000     -29.15710000     -69.56820000
H      -46.05030000     -29.74340000     -67.74330000
H      -42.85250000     -32.23600000     -69.02550000
H      -43.91140000     -28.68600000     -71.22120000
H      -45.74420000     -28.30620000     -69.75040000
C      -42.14600000     -30.96180000     -71.39450000
H      -41.58030000     -31.79170000     -71.02520000
H      -41.56240000     -30.11080000     -71.54810000
C      -44.87770000     -32.17650000     -67.29860000
H      -44.35410000     -31.88520000     -66.37980000
H      -45.89620000     -32.02250000     -66.95500000
S      -42.88680000     -31.40240000     -73.06950000
S      -44.57490000     -33.94660000     -67.83820000
C      -44.24540000     -32.64620000     -72.66440000
H      -44.23050000     -32.89580000     -71.63550000
H      -45.22410000     -32.24480000     -72.88490000
C      -45.41860000     -33.98120000     -69.47730000
H      -45.33450000     -33.07570000     -70.00340000
H      -46.48820000     -34.02360000     -69.35450000
C      -44.94930000     -35.21090000     -70.31170000
H      -43.98250000     -35.04480000     -70.72280000
H      -44.87950000     -36.03660000     -69.64130000
C      -44.08710000     -33.98790000     -73.46070000
H      -43.30550000     -34.60070000     -73.08130000
H      -43.76980000     -33.80650000     -74.49820000
C      -45.45470000     -34.58540000     -73.62710000
C      -46.04950000     -34.53550000     -74.90280000
C      -46.28870000     -35.21880000     -72.64420000
H      -45.67090000     -34.23070000     -75.89130000
C      -47.48540000     -35.67070000     -73.16500000
C      -46.13120000     -35.63200000     -71.27480000
C      -47.25390000     -36.20810000     -70.77550000
S      -47.61850000     -35.32200000     -74.85700000
S      -48.54540000     -36.39380000     -71.99970000
H      -47.42180000     -36.31440000     -69.72330000
