40
Properties=species:S:1:pos:R:3 #=T CELL(abcABC):=T 1.889726e+02=T 90.00000=T Traj:=T positionsangstrom=T Step:=T 0=T Bead:=T pbc="F F F"
C      -45.31030000     -29.83300000     -68.67400000
C      -44.62930000     -31.01690000     -68.50020000
C      -43.65090000     -31.34010000     -69.43630000
C      -43.29950000     -30.57770000     -70.56130000
C      -44.14630000     -29.45830000     -70.71650000
C      -45.10720000     -29.02310000     -69.80580000
H      -46.12260000     -29.62860000     -68.02840000
H      -43.21850000     -32.35480000     -69.34850000
H      -44.07550000     -28.73950000     -71.56210000
H      -45.66230000     -28.19040000     -70.04690000
C      -42.18480000     -30.96620000     -71.47820000
H      -41.77970000     -31.89840000     -71.04970000
H      -41.39430000     -30.17100000     -71.62840000
C      -44.85690000     -31.92340000     -67.32790000
H      -44.12600000     -31.63740000     -66.57230000
H      -45.86440000     -31.79420000     -66.99290000
S      -42.82520000     -31.41320000     -73.16310000
S      -44.62190000     -33.73670000     -67.63560000
C      -44.19510000     -32.54220000     -72.75800000
H      -44.27170000     -32.67680000     -71.59950000
H      -45.14840000     -31.97050000     -72.93550000
C      -45.78720000     -34.13650000     -69.10150000
H      -46.11930000     -33.24020000     -69.56270000
H      -46.71430000     -34.72120000     -68.75820000
C      -45.05130000     -35.02590000     -70.17290000
H      -44.13530000     -34.59590000     -70.69300000
H      -44.63430000     -35.87330000     -69.60300000
C      -44.12610000     -33.94280000     -73.50450000
H      -43.33170000     -34.49150000     -72.94100000
H      -43.76300000     -33.74570000     -74.51720000
C      -45.47330000     -34.62340000     -73.63830000
C      -46.12760000     -34.60460000     -74.86400000
C      -46.17350000     -35.28120000     -72.60370000
H      -45.71280000     -34.24700000     -75.79230000
C      -47.36640000     -35.86760000     -73.12420000
C      -46.05340000     -35.58510000     -71.20730000
C      -47.13240000     -36.26590000     -70.74700000
S      -47.60970000     -35.48240000     -74.77470000
S      -48.37480000     -36.66160000     -71.93210000
H      -47.25110000     -36.57880000     -69.76290000
