40
Properties=species:S:1:pos:R:3 #=T CELL(abcABC):=T 1.889726e+02=T 90.00000=T Traj:=T positionsangstrom=T Step:=T 0=T Bead:=T pbc="F F F"
C      -45.34090000     -31.01240000     -67.99140000
C      -44.52680000     -32.13020000     -68.11470000
C      -43.60570000     -32.14870000     -69.14010000
C      -43.52090000     -31.08190000     -70.06170000
C      -44.31970000     -29.96350000     -69.88870000
C      -45.24960000     -29.91550000     -68.85000000
H      -46.09260000     -31.05430000     -67.21660000
H      -42.83000000     -32.93700000     -69.20610000
H      -44.24650000     -29.22650000     -70.67320000
H      -45.95760000     -29.04260000     -68.88530000
C      -42.46530000     -31.20250000     -71.06480000
H      -41.89670000     -32.15650000     -71.12630000
H      -41.71720000     -30.48780000     -70.89590000
C      -44.60490000     -33.21920000     -67.04800000
H      -43.76680000     -33.04870000     -66.26590000
H      -45.60610000     -33.12530000     -66.55220000
S      -42.97190000     -30.62620000     -72.77720000
S      -44.26580000     -34.90680000     -67.80480000
C      -44.39410000     -31.67420000     -73.14630000
H      -45.13910000     -31.49300000     -72.37470000
H      -44.85250000     -31.29350000     -74.05750000
C      -45.58240000     -35.03280000     -69.03940000
H      -46.29010000     -34.22020000     -68.81640000
H      -46.12720000     -36.01350000     -69.02300000
C      -45.18490000     -34.95830000     -70.47850000
H      -44.77020000     -33.99780000     -70.65270000
H      -44.39020000     -35.74610000     -70.69330000
C      -44.12990000     -33.14680000     -73.23180000
H      -43.69370000     -33.49790000     -72.29920000
H      -43.27030000     -33.33570000     -73.94360000
C      -45.44770000     -33.85950000     -73.70690000
C      -45.84940000     -33.84210000     -75.02070000
C      -46.36120000     -34.61470000     -72.86940000
H      -45.36690000     -33.35370000     -75.92350000
C      -47.40080000     -35.14370000     -73.58900000
C      -46.26560000     -35.25720000     -71.57110000
C      -47.33910000     -36.02060000     -71.27870000
S      -47.31310000     -34.74110000     -75.24500000
S      -48.53230000     -36.06480000     -72.55240000
H      -47.46460000     -36.57040000     -70.36930000
