40
Properties=species:S:1:pos:R:3 #=T CELL(abcABC):=T 1.889726e+02=T 90.00000=T Traj:=T positionsangstrom=T Step:=T 0=T Bead:=T pbc="F F F"
C      -44.63280000     -31.25890000     -67.70430000
C      -45.69210000     -32.11100000     -68.03130000
C      -46.46860000     -31.81970000     -69.18350000
C      -46.22780000     -30.61940000     -69.84500000
C      -45.10590000     -29.82940000     -69.57220000
C      -44.25540000     -30.16220000     -68.49020000
H      -44.06390000     -31.50940000     -66.83790000
H      -47.40300000     -32.35640000     -69.38390000
H      -44.86470000     -29.02380000     -70.28930000
H      -43.34210000     -29.61380000     -68.22870000
C      -47.15790000     -30.29990000     -71.03360000
H      -47.76110000     -29.50710000     -70.75470000
H      -47.91260000     -31.05400000     -71.27030000
C      -46.02750000     -33.35000000     -67.27440000
H      -45.86810000     -33.09790000     -66.20890000
H      -47.01010000     -33.71120000     -67.50270000
S      -46.26920000     -29.65670000     -72.46360000
S      -44.75160000     -34.71370000     -67.46340000
C      -45.81880000     -31.13820000     -73.53140000
H      -46.74450000     -31.61680000     -73.75420000
H      -45.30900000     -30.77110000     -74.46990000
C      -45.13930000     -35.45980000     -69.07160000
H      -46.20970000     -35.67250000     -69.10310000
H      -44.66510000     -36.42200000     -69.14150000
C      -44.57510000     -34.66530000     -70.29270000
H      -44.99680000     -33.66270000     -70.30260000
H      -43.44300000     -34.65110000     -70.26430000
C      -44.97470000     -32.19150000     -72.83230000
H      -45.36940000     -32.36100000     -71.78050000
H      -43.93100000     -31.78880000     -72.57790000
C      -44.82240000     -33.52730000     -73.58400000
C      -44.74130000     -33.62230000     -74.94250000
C      -44.81860000     -34.83560000     -72.92790000
H      -44.50530000     -32.75050000     -75.60950000
C      -44.81310000     -35.84310000     -73.89450000
C      -44.86640000     -35.35450000     -71.60900000
C      -45.25480000     -36.69270000     -71.57540000
S      -44.90210000     -35.22120000     -75.55350000
S      -45.26250000     -37.40110000     -73.18280000
H      -45.12490000     -37.42660000     -70.74590000
