40
Properties=species:S:1:pos:R:3 #=T CELL(abcABC):=T 1.889726e+02=T 90.00000=T Traj:=T positionsangstrom=T Step:=T 0=T Bead:=T pbc="F F F"
C      -45.23050000     -30.75900000     -68.26930000
C      -44.29120000     -31.81930000     -68.21350000
C      -43.27230000     -31.84750000     -69.17150000
C      -43.20540000     -30.81610000     -70.11520000
C      -43.98050000     -29.64920000     -69.99840000
C      -45.07810000     -29.66660000     -69.12250000
H      -46.10490000     -30.74820000     -67.64530000
H      -42.57350000     -32.66090000     -69.22580000
H      -43.80090000     -28.90370000     -70.80150000
H      -45.79680000     -28.88620000     -69.19060000
C      -42.16990000     -30.85660000     -71.16650000
H      -41.55450000     -31.74370000     -71.00520000
H      -41.52270000     -29.89010000     -71.14640000
C      -44.32070000     -32.86510000     -67.18660000
H      -43.43240000     -32.80480000     -66.57560000
H      -45.21020000     -32.73910000     -66.51490000
S      -42.91470000     -30.99900000     -72.90670000
S      -44.37190000     -34.64800000     -67.87390000
C      -44.36750000     -32.08430000     -72.72690000
H      -44.65260000     -32.10940000     -71.66550000
H      -45.20840000     -31.64900000     -73.23630000
C      -45.84290000     -34.73410000     -69.00830000
H      -46.37850000     -33.76720000     -69.04220000
H      -46.50320000     -35.54190000     -68.52190000
C      -45.41860000     -35.06060000     -70.40470000
H      -44.76910000     -34.20720000     -70.80750000
H      -44.69430000     -35.90940000     -70.32330000
C      -44.09460000     -33.54400000     -73.14570000
H      -43.77710000     -34.14160000     -72.24080000
H      -43.35250000     -33.60980000     -73.96460000
C      -45.41520000     -34.16420000     -73.58400000
C      -45.81540000     -34.03290000     -74.85830000
C      -46.42860000     -34.91870000     -72.81740000
H      -45.28710000     -33.55370000     -75.66370000
C      -47.55160000     -35.31830000     -73.51760000
C      -46.51180000     -35.41520000     -71.46280000
C      -47.66220000     -36.08920000     -71.14760000
S      -47.41770000     -34.80350000     -75.14810000
S      -48.74820000     -36.14990000     -72.55360000
H      -48.21700000     -36.36080000     -70.20570000
