40
Properties=species:S:1:pos:R:3 #=T CELL(abcABC):=T 1.889726e+02=T 90.00000=T Traj:=T positionsangstrom=T Step:=T 0=T Bead:=T pbc="F F F"
C      -45.38540000     -29.85290000     -68.90320000
C      -44.59810000     -30.95320000     -68.62190000
C      -43.63050000     -31.29150000     -69.51840000
C      -43.27640000     -30.52260000     -70.62030000
C      -44.03630000     -29.35100000     -70.80800000
C      -45.02720000     -29.03860000     -69.94910000
H      -46.15070000     -29.60920000     -68.25850000
H      -43.00690000     -32.15340000     -69.33800000
H      -43.96180000     -28.75880000     -71.69370000
H      -45.49050000     -28.11490000     -70.08270000
C      -42.21000000     -30.84810000     -71.67020000
H      -41.50080000     -31.55660000     -71.31830000
H      -41.53230000     -30.06060000     -71.95040000
C      -44.97250000     -31.78870000     -67.44250000
H      -44.39230000     -31.48920000     -66.53130000
H      -46.06970000     -31.64410000     -67.16300000
S      -42.82740000     -31.39740000     -73.32670000
S      -44.68880000     -33.63910000     -67.52120000
C      -44.38760000     -32.36530000     -73.07340000
H      -44.76600000     -32.23930000     -72.08260000
H      -45.11600000     -31.92200000     -73.68340000
C      -45.89490000     -34.21370000     -68.83570000
H      -46.43760000     -33.23950000     -69.02570000
H      -46.59810000     -34.90840000     -68.36800000
C      -45.17340000     -34.76050000     -70.09860000
H      -44.65700000     -33.93130000     -70.58430000
H      -44.32610000     -35.38430000     -69.78410000
C      -44.15860000     -33.86900000     -73.31630000
H      -43.60030000     -34.35650000     -72.43770000
H      -43.53580000     -34.02300000     -74.21040000
C      -45.50400000     -34.55960000     -73.49220000
C      -46.03310000     -34.75380000     -74.75760000
C      -46.30120000     -35.24490000     -72.47770000
H      -45.63310000     -34.22140000     -75.53290000
C      -47.44230000     -35.89280000     -73.03310000
C      -46.19320000     -35.40150000     -71.05940000
C      -47.12160000     -36.28830000     -70.63930000
S      -47.51500000     -35.68510000     -74.69970000
S      -48.12600000     -37.02290000     -71.91240000
H      -47.24160000     -36.73140000     -69.66080000
