40
Properties=species:S:1:pos:R:3 #=T CELL(abcABC):=T 1.889726e+02=T 90.00000=T Traj:=T positionsangstrom=T Step:=T 0=T Bead:=T pbc="F F F"
C      -45.50410000     -37.35030000     -72.79980000
C      -46.50690000     -36.52820000     -72.27450000
C      -46.36440000     -36.09590000     -70.98500000
C      -45.30010000     -36.42270000     -70.16220000
C      -44.27250000     -37.18080000     -70.73000000
C      -44.39270000     -37.70580000     -72.01610000
H      -45.54150000     -37.80010000     -73.80320000
H      -47.13890000     -35.44260000     -70.51790000
H      -43.43120000     -37.47900000     -70.09600000
H      -43.63670000     -38.20210000     -72.52700000
C      -45.23440000     -35.75290000     -68.77140000
H      -45.52500000     -36.38230000     -67.85720000
H      -45.90800000     -34.92170000     -68.63770000
C      -47.75520000     -36.22330000     -73.17550000
H      -47.42760000     -35.93510000     -74.18320000
H      -48.35690000     -37.02580000     -73.16300000
S      -43.53710000     -35.13130000     -68.40910000
S      -48.68230000     -34.83000000     -72.53010000
C      -43.52350000     -33.80990000     -69.60000000
H      -42.46450000     -33.43070000     -69.69480000
H      -43.82550000     -34.23750000     -70.53650000
C      -47.58150000     -33.38610000     -73.01030000
H      -48.16780000     -32.44370000     -73.12730000
H      -47.14830000     -33.70610000     -73.98550000
C      -46.44870000     -33.07920000     -72.03710000
H      -46.73700000     -32.91480000     -70.98070000
H      -45.73300000     -33.91350000     -72.01380000
C      -44.48430000     -32.72010000     -69.22490000
H      -44.18510000     -32.42830000     -68.17660000
H      -45.50070000     -33.06570000     -69.05310000
C      -44.39070000     -31.47180000     -70.10260000
C      -43.59760000     -30.47510000     -69.66420000
C      -44.96700000     -31.12620000     -71.39430000
H      -43.01590000     -30.53490000     -68.71650000
C      -44.53840000     -29.92130000     -71.81620000
C      -45.71830000     -31.85050000     -72.40490000
C      -45.83930000     -31.12940000     -73.56730000
S      -43.40940000     -29.14790000     -70.75870000
S      -45.12660000     -29.51820000     -73.42220000
H      -46.22500000     -31.50710000     -74.49430000
