40
Properties=species:S:1:pos:R:3 #=T CELL(abcABC):=T 1.889726e+02=T 90.00000=T Traj:=T positionsangstrom=T Step:=T 0=T Bead:=T pbc="F F F"
C      -45.45750000     -37.36350000     -72.75660000
C      -46.46850000     -36.64110000     -72.17300000
C      -46.28480000     -36.28270000     -70.81280000
C      -45.17830000     -36.59270000     -70.04970000
C      -44.15400000     -37.29790000     -70.72940000
C      -44.28380000     -37.63940000     -72.07330000
H      -45.51930000     -37.71820000     -73.78130000
H      -47.16770000     -35.84520000     -70.33470000
H      -43.17680000     -37.47540000     -70.24510000
H      -43.52080000     -38.21780000     -72.59200000
C      -44.95460000     -36.04830000     -68.65210000
H      -44.70630000     -36.83450000     -67.94320000
H      -45.86660000     -35.56090000     -68.39040000
C      -47.67580000     -36.36420000     -73.10360000
H      -47.38450000     -36.23050000     -74.18410000
H      -48.27900000     -37.33340000     -73.00680000
S      -43.39760000     -35.08590000     -68.51880000
S      -48.76290000     -34.84960000     -72.72970000
C      -43.70130000     -33.65560000     -69.77800000
H      -42.73930000     -33.08410000     -69.97800000
H      -44.02330000     -34.13230000     -70.70780000
C      -47.65990000     -33.46070000     -73.12300000
H      -48.33710000     -32.58550000     -73.25720000
H      -47.23580000     -33.62540000     -74.11960000
C      -46.49480000     -33.16920000     -72.05040000
H      -47.04500000     -33.32030000     -71.13320000
H      -45.72950000     -33.89280000     -72.04080000
C      -44.69920000     -32.59450000     -69.32710000
H      -44.61230000     -32.45480000     -68.23110000
H      -45.74630000     -32.82980000     -69.47500000
C      -44.36230000     -31.27730000     -70.01580000
C      -43.62390000     -30.24530000     -69.53700000
C      -44.95990000     -31.06850000     -71.30880000
H      -43.18850000     -30.26450000     -68.52660000
C      -44.38460000     -29.95330000     -71.86920000
C      -45.88500000     -31.78980000     -72.23240000
C      -46.12740000     -31.00980000     -73.33410000
S      -43.47990000     -28.96180000     -70.74410000
S      -45.10740000     -29.60560000     -73.41380000
H      -46.69000000     -31.25650000     -74.16550000
