40
Properties=species:S:1:pos:R:3 #=T CELL(abcABC):=T 1.889726e+02=T 90.00000=T Traj:=T positionsangstrom=T Step:=T 0=T Bead:=T pbc="F F F"
C      -45.48270000     -34.10900000     -75.36450000
C      -44.78030000     -32.94840000     -74.91970000
C      -45.46640000     -32.05900000     -74.10970000
C      -46.87850000     -32.16630000     -73.87940000
C      -47.54220000     -33.29350000     -74.44650000
C      -46.84240000     -34.26200000     -75.15060000
H      -44.91670000     -34.79910000     -76.01410000
H      -45.06940000     -31.08910000     -73.91260000
H      -48.59700000     -33.46850000     -74.35800000
H      -47.30380000     -35.03720000     -75.67240000
C      -47.73890000     -31.35960000     -72.99840000
H      -48.78340000     -31.54320000     -73.06750000
H      -47.65520000     -30.24770000     -73.03250000
C      -43.34000000     -32.76860000     -75.13290000
H      -42.97240000     -33.05380000     -76.12540000
H      -43.02780000     -31.70670000     -74.97110000
S      -47.40720000     -31.92140000     -71.23680000
S      -42.32230000     -33.78430000     -73.99170000
C      -48.07020000     -33.70580000     -71.27680000
H      -48.91000000     -33.67530000     -70.57570000
H      -48.40230000     -33.93080000     -72.30490000
C      -42.65930000     -33.25940000     -72.15820000
H      -42.69580000     -32.15920000     -72.15830000
H      -41.70070000     -33.55970000     -71.64870000
C      -43.90340000     -33.82880000     -71.63200000
H      -44.75040000     -33.34410000     -72.03370000
H      -43.96530000     -34.89090000     -71.84480000
C      -47.12090000     -34.76570000     -70.82830000
H      -46.33110000     -34.83370000     -71.63440000
H      -47.48470000     -35.78600000     -70.81770000
C      -46.48060000     -34.51230000     -69.43330000
C      -47.22830000     -34.57570000     -68.22000000
C      -45.09720000     -34.11740000     -69.21250000
H      -48.31140000     -34.75550000     -68.08630000
C      -44.81140000     -33.87020000     -67.88140000
C      -43.98130000     -33.69050000     -70.09850000
C      -43.00350000     -33.07570000     -69.34840000
S      -46.19320000     -34.16740000     -66.77690000
S      -43.23410000     -33.10660000     -67.65170000
H      -42.18480000     -32.54430000     -69.88070000
