40
Properties=species:S:1:pos:R:3 #=T CELL(abcABC):=T 1.889726e+02=T 90.00000=T Traj:=T positionsangstrom=T Step:=T 0=T Bead:=T pbc="F F F"
C      -45.45100000     -31.17950000     -67.55610000
C      -46.29330000     -32.22700000     -67.93440000
C      -47.02760000     -32.01960000     -69.09640000
C      -46.86060000     -30.80670000     -69.85910000
C      -46.04030000     -29.77970000     -69.40130000
C      -45.34070000     -29.96430000     -68.21720000
H      -44.77040000     -31.32760000     -66.67290000
H      -47.70820000     -32.70280000     -69.46080000
H      -45.89230000     -28.86130000     -70.06000000
H      -44.79870000     -29.08130000     -67.79910000
C      -47.62120000     -30.58140000     -71.09150000
H      -48.11900000     -29.57460000     -70.98590000
H      -48.36560000     -31.34180000     -71.35220000
C      -46.29910000     -33.56510000     -67.24430000
H      -46.27420000     -33.38730000     -66.16370000
H      -47.11570000     -34.22850000     -67.51500000
S      -46.56580000     -30.24210000     -72.59610000
S      -44.77480000     -34.47400000     -67.65880000
C      -45.79860000     -31.85130000     -73.10460000
H      -45.36390000     -31.57810000     -74.06910000
H      -44.95460000     -32.02250000     -72.40340000
C      -45.10040000     -35.05590000     -69.43320000
H      -46.20020000     -35.12000000     -69.54310000
H      -44.61410000     -36.02120000     -69.55830000
C      -44.70190000     -34.00810000     -70.39770000
H      -45.59030000     -33.41510000     -70.58340000
H      -43.98240000     -33.28060000     -69.98660000
C      -46.74930000     -33.06330000     -73.18380000
H      -47.63200000     -32.93760000     -73.84160000
H      -47.04410000     -33.32820000     -72.13460000
C      -45.89010000     -34.15740000     -73.72050000
C      -45.92580000     -34.49530000     -75.04790000
C      -44.79310000     -34.74580000     -72.97730000
H      -46.59710000     -34.08200000     -75.73820000
C      -44.14560000     -35.69200000     -73.77620000
C      -44.17690000     -34.70070000     -71.65370000
C      -43.11400000     -35.52360000     -71.53930000
S      -44.61530000     -35.61890000     -75.40740000
S      -42.72590000     -36.38520000     -73.04830000
H      -42.40890000     -35.79590000     -70.77580000
