40
Properties=species:S:1:pos:R:3 #=T CELL(abcABC):=T 1.889726e+02=T 90.00000=T Traj:=T positionsangstrom=T Step:=T 0=T Bead:=T pbc="F F F"
C      -45.41310000     -31.22000000     -67.37970000
C      -46.16350000     -32.24760000     -67.91710000
C      -46.93180000     -32.01710000     -69.05410000
C      -46.89200000     -30.75090000     -69.74340000
C      -46.09710000     -29.71950000     -69.22440000
C      -45.33150000     -30.00770000     -68.03810000
H      -44.85360000     -31.31320000     -66.41450000
H      -47.54740000     -32.84640000     -69.60260000
H      -46.16780000     -28.67060000     -69.53810000
H      -44.55540000     -29.19740000     -67.81710000
C      -47.69860000     -30.38230000     -70.98650000
H      -48.29480000     -29.50260000     -70.72060000
H      -48.36860000     -31.25640000     -71.24650000
C      -46.15840000     -33.64090000     -67.36020000
H      -46.41390000     -33.66280000     -66.30410000
H      -47.00640000     -34.13600000     -67.80590000
S      -46.72840000     -29.83600000     -72.43830000
S      -44.67150000     -34.68450000     -67.57990000
C      -46.08230000     -31.32140000     -73.32540000
H      -46.44460000     -31.38120000     -74.36610000
H      -44.99260000     -31.21000000     -73.40410000
C      -44.95410000     -35.35490000     -69.31350000
H      -46.06240000     -35.23610000     -69.41520000
H      -44.76420000     -36.39150000     -69.40130000
C      -44.28790000     -34.49650000     -70.39760000
H      -44.94590000     -33.67760000     -70.68700000
H      -43.32110000     -34.12900000     -69.99460000
C      -46.30850000     -32.72880000     -72.69260000
H      -47.39190000     -32.98740000     -72.57360000
H      -45.91780000     -32.70620000     -71.65360000
C      -45.41770000     -33.71500000     -73.52840000
C      -45.64260000     -33.84900000     -74.87610000
C      -44.62810000     -34.81330000     -73.01990000
H      -46.23740000     -33.22490000     -75.46510000
C      -44.22310000     -35.66660000     -74.03600000
C      -44.12570000     -35.28400000     -71.72550000
C      -43.33030000     -36.42790000     -71.74430000
S      -44.70850000     -35.13170000     -75.62020000
S      -43.22920000     -36.97170000     -73.43910000
H      -42.86020000     -36.91950000     -70.94840000
