40
Properties=species:S:1:pos:R:3 #=T CELL(abcABC):=T 1.889726e+02=T 90.00000=T Traj:=T positionsangstrom=T Step:=T 0=T Bead:=T pbc="F F F"
C      -45.43640000     -31.56430000     -67.80210000
C      -46.29220000     -32.61180000     -68.21610000
C      -47.30340000     -32.33900000     -69.16990000
C      -47.44660000     -31.06620000     -69.74400000
C      -46.44840000     -30.06030000     -69.43810000
C      -45.47120000     -30.35050000     -68.51680000
H      -44.66150000     -31.65560000     -67.10880000
H      -47.96210000     -33.20910000     -69.31630000
H      -46.60220000     -29.10300000     -69.85570000
H      -44.80460000     -29.61520000     -68.17480000
C      -48.40310000     -30.86780000     -70.89330000
H      -49.12600000     -30.05000000     -70.83760000
H      -49.01410000     -31.77220000     -70.99670000
C      -46.39220000     -33.92290000     -67.54690000
H      -46.53670000     -33.75920000     -66.43610000
H      -47.27650000     -34.43060000     -67.97240000
S      -47.46930000     -30.54240000     -72.43240000
S      -44.95530000     -35.13290000     -67.72770000
C      -46.20880000     -31.85700000     -72.32690000
H      -45.57830000     -31.67180000     -73.23980000
H      -45.44060000     -31.76740000     -71.55150000
C      -45.01220000     -35.27980000     -69.57030000
H      -46.01610000     -35.21310000     -70.04590000
H      -44.53930000     -36.25410000     -69.77440000
C      -44.07060000     -34.19870000     -70.27250000
H      -44.59080000     -33.23290000     -70.32810000
H      -43.13360000     -34.11150000     -69.66910000
C      -46.58480000     -33.31050000     -72.33200000
H      -47.50830000     -33.47290000     -72.83630000
H      -46.54480000     -33.71570000     -71.32750000
C      -45.55980000     -33.95500000     -73.24530000
C      -45.87060000     -34.01130000     -74.60140000
C      -44.30480000     -34.52150000     -72.85770000
H      -46.77950000     -33.65230000     -75.12510000
C      -43.66750000     -35.05790000     -74.01820000
C      -43.55640000     -34.65120000     -71.66360000
C      -42.30940000     -35.22640000     -71.83630000
S      -44.57290000     -34.81420000     -75.47820000
S      -42.04920000     -35.56490000     -73.60600000
H      -41.51290000     -35.47770000     -71.17130000
