40
Properties=species:S:1:pos:R:3 #=T CELL(abcABC):=T 1.889726e+02=T 90.00000=T Traj:=T positionsangstrom=T Step:=T 0=T Bead:=T pbc="F F F"
C      -45.45100000     -31.34110000     -67.83930000
C      -46.41240000     -32.28750000     -68.19670000
C      -47.19200000     -32.04560000     -69.33940000
C      -47.17440000     -30.80600000     -69.99170000
C      -46.30250000     -29.82270000     -69.53990000
C      -45.30680000     -30.18890000     -68.60210000
H      -44.89970000     -31.59070000     -66.98500000
H      -47.85040000     -32.72720000     -69.81350000
H      -46.21350000     -28.94500000     -70.15510000
H      -44.56640000     -29.48470000     -68.40910000
C      -48.11260000     -30.54180000     -71.11930000
H      -48.72580000     -29.64960000     -70.92530000
H      -48.78100000     -31.37340000     -71.33900000
C      -46.57570000     -33.63540000     -67.53850000
H      -46.67820000     -33.62640000     -66.40180000
H      -47.49220000     -34.00850000     -67.88480000
S      -47.13640000     -30.19930000     -72.71810000
S      -45.09810000     -34.76640000     -67.80680000
C      -45.93640000     -31.57270000     -72.68320000
H      -45.30680000     -31.42270000     -73.53650000
H      -45.28200000     -31.28340000     -71.82450000
C      -44.91190000     -35.01420000     -69.51100000
H      -45.92490000     -35.15210000     -69.95030000
H      -44.36190000     -35.95020000     -69.61070000
C      -44.07020000     -33.93040000     -70.28050000
H      -44.59500000     -32.94400000     -70.33940000
H      -43.21860000     -33.63330000     -69.63820000
C      -46.44460000     -33.05600000     -72.57870000
H      -47.50760000     -32.99870000     -72.91260000
H      -46.33910000     -33.36900000     -71.48750000
C      -45.65720000     -34.07090000     -73.35200000
C      -45.85840000     -34.47180000     -74.69760000
C      -44.48350000     -34.64210000     -72.79710000
H      -46.60300000     -34.16210000     -75.42130000
C      -43.78590000     -35.47230000     -73.71840000
C      -43.68490000     -34.59780000     -71.59740000
C      -42.57400000     -35.40480000     -71.62940000
S      -44.67140000     -35.68560000     -75.17110000
S      -42.33480000     -36.27480000     -73.13550000
H      -41.92360000     -35.34430000     -70.81940000
