40
Properties=species:S:1:pos:R:3 #=T CELL(abcABC):=T 1.889726e+02=T 90.00000=T Traj:=T positionsangstrom=T Step:=T 0=T Bead:=T pbc="F F F"
C      -45.45720000     -31.71710000     -67.71970000
C      -46.49200000     -32.63280000     -68.15230000
C      -47.41420000     -32.30430000     -69.06670000
C      -47.37180000     -31.05970000     -69.79920000
C      -46.38530000     -30.14070000     -69.35520000
C      -45.44750000     -30.50730000     -68.39540000
H      -44.75950000     -31.96340000     -66.93230000
H      -48.18560000     -33.01540000     -69.27890000
H      -46.14130000     -29.23280000     -69.85290000
H      -44.68710000     -29.78970000     -68.03970000
C      -48.31400000     -30.63760000     -70.90090000
H      -48.61640000     -29.59480000     -70.78300000
H      -49.22210000     -31.30980000     -70.91050000
C      -46.54290000     -34.01390000     -67.47780000
H      -46.57670000     -33.80710000     -66.37960000
H      -47.41030000     -34.64060000     -67.67120000
S      -47.62030000     -30.48160000     -72.63650000
S      -44.96510000     -34.90420000     -67.73590000
C      -46.11710000     -31.58900000     -72.59180000
H      -45.67820000     -31.40290000     -73.58410000
H      -45.38990000     -31.29960000     -71.86030000
C      -44.86680000     -35.21370000     -69.53300000
H      -45.81210000     -35.19190000     -69.98150000
H      -44.50540000     -36.26470000     -69.62470000
C      -43.91890000     -34.19480000     -70.17420000
H      -44.43180000     -33.22580000     -70.21080000
H      -43.06530000     -33.92990000     -69.51570000
C      -46.44020000     -33.05350000     -72.45340000
H      -47.49200000     -33.32340000     -72.66180000
H      -46.27880000     -33.30680000     -71.36930000
C      -45.59140000     -33.91540000     -73.29620000
C      -45.86290000     -34.31600000     -74.60130000
C      -44.31180000     -34.48000000     -72.83110000
H      -46.71970000     -33.92210000     -75.17610000
C      -43.69910000     -35.14330000     -73.91900000
C      -43.53200000     -34.62300000     -71.60700000
C      -42.39650000     -35.32020000     -71.84130000
S      -44.48040000     -34.99450000     -75.43820000
S      -42.08290000     -35.71610000     -73.58280000
H      -41.52140000     -35.48360000     -71.19440000
