40
Properties=species:S:1:pos:R:3 #=T CELL(abcABC):=T 1.889726e+02=T 90.00000=T Traj:=T positionsangstrom=T Step:=T 0=T Bead:=T pbc="F F F"
C      -45.49750000     -31.65310000     -67.89420000
C      -46.50480000     -32.52650000     -68.28390000
C      -47.47360000     -32.04060000     -69.25490000
C      -47.33250000     -30.80330000     -69.88590000
C      -46.25120000     -29.97160000     -69.48080000
C      -45.32500000     -30.37400000     -68.49360000
H      -44.70740000     -32.05500000     -67.21660000
H      -48.33290000     -32.61630000     -69.62220000
H      -46.08520000     -28.97180000     -69.95760000
H      -44.55490000     -29.61670000     -68.25060000
C      -48.20440000     -30.46550000     -71.07480000
H      -48.61650000     -29.45510000     -70.95750000
H      -49.02460000     -31.20140000     -71.25350000
C      -46.56710000     -33.82400000     -67.57610000
H      -46.63790000     -33.76150000     -66.47520000
H      -47.32070000     -34.45560000     -68.08530000
S      -47.33220000     -30.31290000     -72.69120000
S      -44.99370000     -34.82430000     -67.77100000
C      -45.96220000     -31.57010000     -72.86860000
H      -45.59110000     -31.50360000     -73.87710000
H      -45.10750000     -31.38660000     -72.20970000
C      -44.93560000     -34.87290000     -69.66010000
H      -45.94710000     -34.65440000     -70.06270000
H      -44.69850000     -35.83030000     -70.01350000
C      -43.95610000     -33.88300000     -70.19850000
H      -44.39450000     -32.91370000     -70.42680000
H      -43.12190000     -33.75930000     -69.51000000
C      -46.49230000     -33.00400000     -72.58450000
H      -47.48760000     -33.19180000     -72.98410000
H      -46.50990000     -33.17540000     -71.54850000
C      -45.59310000     -33.99090000     -73.25720000
C      -45.93880000     -34.47270000     -74.51180000
C      -44.32270000     -34.57600000     -72.79580000
H      -46.81200000     -34.23450000     -75.02970000
C      -43.68710000     -35.37660000     -73.74620000
C      -43.50570000     -34.54970000     -71.57440000
C      -42.37590000     -35.30760000     -71.65640000
S      -44.67190000     -35.41260000     -75.23860000
S      -42.23290000     -36.22390000     -73.18520000
H      -41.74830000     -35.44590000     -70.79000000
