40
Properties=species:S:1:pos:R:3 #=T CELL(abcABC):=T 1.889726e+02=T 90.00000=T Traj:=T positionsangstrom=T Step:=T 0=T Bead:=T pbc="F F F"
C      -45.51640000     -31.18350000     -67.71790000
C      -46.39160000     -32.23720000     -68.09570000
C      -47.14040000     -32.00840000     -69.26310000
C      -47.05200000     -30.81410000     -69.98530000
C      -46.16960000     -29.80210000     -69.57250000
C      -45.40630000     -29.95450000     -68.39330000
H      -44.98160000     -31.28950000     -66.82640000
H      -47.84780000     -32.85080000     -69.57280000
H      -46.37980000     -28.95570000     -70.14590000
H      -44.69370000     -29.24000000     -68.13720000
C      -47.93520000     -30.46680000     -71.10480000
H      -48.46620000     -29.54100000     -70.84050000
H      -48.66750000     -31.25090000     -71.21020000
C      -46.54130000     -33.58070000     -67.36530000
H      -46.57300000     -33.48370000     -66.27960000
H      -47.49680000     -34.10380000     -67.61980000
S      -47.01320000     -30.16830000     -72.73430000
S      -45.07010000     -34.70440000     -67.52530000
C      -45.72760000     -31.54390000     -72.83650000
H      -45.02470000     -31.22970000     -73.65300000
H      -45.28160000     -31.57330000     -71.84160000
C      -44.99490000     -35.18100000     -69.37240000
H      -46.02000000     -35.31050000     -69.67470000
H      -44.51400000     -36.16810000     -69.47520000
C      -44.36320000     -34.04830000     -70.30350000
H      -45.18030000     -33.38600000     -70.58550000
H      -43.59150000     -33.47840000     -69.80560000
C      -46.44650000     -32.84320000     -73.08740000
H      -47.21860000     -32.71050000     -73.82160000
H      -46.98290000     -33.12060000     -72.21480000
C      -45.59010000     -34.00140000     -73.53600000
C      -45.93930000     -34.56180000     -74.76620000
C      -44.46360000     -34.68010000     -72.91100000
H      -46.81290000     -34.21600000     -75.39570000
C      -43.79060000     -35.52590000     -73.82300000
C      -43.76000000     -34.73160000     -71.62060000
C      -42.62910000     -35.50860000     -71.64160000
S      -44.76760000     -35.79190000     -75.22030000
S      -42.37170000     -36.34960000     -73.19600000
H      -42.03330000     -35.68560000     -70.72600000
