40
Properties=species:S:1:pos:R:3 #=T CELL(abcABC):=T 1.889726e+02=T 90.00000=T Traj:=T positionsangstrom=T Step:=T 0=T Bead:=T pbc="F F F"
C      -45.28150000     -31.62620000     -67.58480000
C      -46.16690000     -32.67120000     -68.01570000
C      -47.19140000     -32.38010000     -68.92010000
C      -47.32710000     -31.08930000     -69.52860000
C      -46.36170000     -30.16900000     -69.23440000
C      -45.35630000     -30.42040000     -68.27130000
H      -44.53580000     -31.70190000     -66.76620000
H      -48.00200000     -33.13800000     -69.12140000
H      -46.31980000     -29.22380000     -69.81310000
H      -44.63320000     -29.57630000     -68.15440000
C      -48.35760000     -30.93840000     -70.57760000
H      -49.05260000     -30.09240000     -70.35260000
H      -48.90770000     -31.87970000     -70.84470000
C      -46.24910000     -34.01860000     -67.42620000
H      -46.23720000     -33.98910000     -66.32090000
H      -47.17830000     -34.56020000     -67.68140000
S      -47.65900000     -30.42420000     -72.20150000
S      -44.86310000     -35.18940000     -67.79280000
C      -46.23070000     -31.58190000     -72.63580000
H      -45.98480000     -31.35150000     -73.65480000
H      -45.33510000     -31.44110000     -71.99340000
C      -44.95710000     -35.32790000     -69.65340000
H      -46.00890000     -35.38720000     -69.90090000
H      -44.53090000     -36.28840000     -69.93000000
C      -44.25560000     -34.22190000     -70.48600000
H      -44.84310000     -33.32920000     -70.60850000
H      -43.46290000     -33.81510000     -69.88440000
C      -46.67620000     -33.15980000     -72.64080000
H      -47.61970000     -33.22230000     -73.13720000
H      -46.93660000     -33.54100000     -71.66780000
C      -45.67130000     -33.94730000     -73.42200000
C      -45.87590000     -34.06760000     -74.77290000
C      -44.34530000     -34.45640000     -73.03490000
H      -46.69080000     -33.86290000     -75.40680000
C      -43.67030000     -34.94960000     -74.11590000
C      -43.66360000     -34.71380000     -71.76290000
C      -42.41200000     -35.27140000     -71.93530000
S      -44.51210000     -34.84180000     -75.57650000
S      -42.10990000     -35.54900000     -73.66360000
H      -41.69160000     -35.46830000     -71.23460000
