40
Properties=species:S:1:pos:R:3 #=T CELL(abcABC):=T 1.889726e+02=T 90.00000=T Traj:=T positionsangstrom=T Step:=T 0=T Bead:=T pbc="F F F"
C      -45.47620000     -31.17790000     -67.69540000
C      -46.32320000     -32.21610000     -68.06750000
C      -47.07740000     -31.96480000     -69.20040000
C      -46.93370000     -30.74690000     -69.91390000
C      -46.14110000     -29.67650000     -69.45090000
C      -45.39980000     -29.93720000     -68.28410000
H      -44.79520000     -31.48540000     -66.88820000
H      -47.81780000     -32.68990000     -69.57170000
H      -46.05790000     -28.79100000     -70.09930000
H      -44.71750000     -29.24210000     -67.78440000
C      -47.71540000     -30.62490000     -71.15780000
H      -48.47800000     -29.85380000     -71.16120000
H      -48.31520000     -31.57260000     -71.30780000
C      -46.40800000     -33.53150000     -67.24540000
H      -46.49100000     -33.26290000     -66.21840000
H      -47.29490000     -34.15940000     -67.57610000
S      -46.75220000     -30.12600000     -72.61920000
S      -44.91520000     -34.60130000     -67.60020000
C      -45.80110000     -31.69460000     -72.96680000
H      -45.39600000     -31.55870000     -73.96600000
H      -44.90760000     -31.91150000     -72.41060000
C      -45.01130000     -35.06280000     -69.34710000
H      -45.94730000     -35.52290000     -69.58910000
H      -44.30080000     -35.89360000     -69.36000000
C      -44.51960000     -34.02880000     -70.40470000
H      -45.25840000     -33.23570000     -70.46330000
H      -43.60900000     -33.58960000     -69.92240000
C      -46.59220000     -33.07460000     -73.04070000
H      -47.54220000     -32.88900000     -73.57230000
H      -46.92620000     -33.42150000     -72.04740000
C      -45.76380000     -34.10870000     -73.69630000
C      -45.90520000     -34.63190000     -74.98850000
C      -44.69740000     -34.77200000     -72.98850000
H      -46.57540000     -34.23180000     -75.72100000
C      -44.03060000     -35.70820000     -73.75470000
C      -44.01080000     -34.67260000     -71.67660000
C      -42.91810000     -35.45910000     -71.52730000
S      -44.71720000     -35.73180000     -75.40740000
S      -42.54560000     -36.35700000     -73.03090000
H      -42.30030000     -35.62620000     -70.62010000
