40
Properties=species:S:1:pos:R:3 #=T CELL(abcABC):=T 1.889726e+02=T 90.00000=T Traj:=T positionsangstrom=T Step:=T 0=T Bead:=T pbc="F F F"
C      -42.82060000     -35.75780000     -69.32330000
C      -42.59180000     -35.51010000     -70.63790000
C      -42.13550000     -34.27980000     -71.05560000
C      -42.13800000     -33.16200000     -70.23700000
C      -42.40760000     -33.41380000     -68.90770000
C      -42.71550000     -34.69780000     -68.44620000
H      -43.14810000     -36.75240000     -68.97350000
H      -41.79150000     -34.21160000     -72.04820000
H      -42.61700000     -32.60390000     -68.22410000
H      -42.84690000     -34.80020000     -67.34130000
C      -41.73520000     -31.84480000     -70.79450000
H      -41.62780000     -31.95310000     -71.85810000
H      -40.74540000     -31.64490000     -70.38920000
C      -42.59850000     -36.65360000     -71.65760000
H      -42.09090000     -36.32970000     -72.57090000
H      -42.01670000     -37.45160000     -71.21540000
S      -42.97420000     -30.36800000     -70.50830000
S      -44.30850000     -37.10140000     -72.13460000
C      -44.41860000     -31.07840000     -71.41150000
H      -44.86000000     -30.24690000     -72.02070000
H      -44.07940000     -31.87910000     -72.07500000
C      -44.88840000     -35.51970000     -72.96310000
H      -45.64260000     -35.85700000     -73.68480000
H      -44.01730000     -35.19540000     -73.59520000
C      -45.51580000     -34.54610000     -72.01480000
H      -45.71640000     -34.92500000     -70.97120000
H      -44.76820000     -33.76480000     -71.77660000
C      -45.48160000     -31.52650000     -70.38130000
H      -45.53550000     -30.79940000     -69.57920000
H      -45.23050000     -32.44480000     -69.93660000
C      -46.87550000     -31.60970000     -70.95340000
C      -47.80370000     -30.64550000     -70.67280000
C      -47.35390000     -32.68150000     -71.79430000
H      -47.60010000     -29.80760000     -69.99120000
C      -48.72650000     -32.54720000     -72.00010000
C      -46.77060000     -33.88430000     -72.45770000
C      -47.79190000     -34.53870000     -73.13060000
S      -49.34930000     -31.04700000     -71.28550000
S      -49.36180000     -33.70930000     -73.07960000
H      -47.80770000     -35.52010000     -73.60720000
