40
Properties=species:S:1:pos:R:3 #=T CELL(abcABC):=T 1.889726e+02=T 90.00000=T Traj:=T positionsangstrom=T Step:=T 0=T Bead:=T pbc="F F F"
C      -44.92970000     -31.92070000     -67.58510000
C      -45.88720000     -32.95160000     -67.74540000
C      -46.97330000     -32.66110000     -68.62960000
C      -47.01620000     -31.53440000     -69.47170000
C      -46.05410000     -30.53230000     -69.23110000
C      -45.10540000     -30.71750000     -68.23260000
H      -44.22480000     -31.99310000     -66.73920000
H      -47.70250000     -33.41580000     -68.72670000
H      -45.96090000     -29.61950000     -69.86240000
H      -44.38110000     -29.94760000     -68.01570000
C      -48.22510000     -31.27760000     -70.37980000
H      -49.00990000     -30.70470000     -69.79410000
H      -48.70780000     -32.22500000     -70.62900000
C      -45.80820000     -34.28370000     -67.11030000
H      -45.44580000     -34.37460000     -66.10280000
H      -46.80540000     -34.70700000     -67.10520000
S      -47.77910000     -30.35720000     -71.86000000
S      -44.64960000     -35.40680000     -67.98400000
C      -46.45410000     -31.37500000     -72.68090000
H      -46.36680000     -31.07310000     -73.75620000
H      -45.46620000     -31.17750000     -72.25140000
C      -44.96430000     -35.15010000     -69.79310000
H      -46.01820000     -35.13520000     -70.10810000
H      -44.56170000     -36.11760000     -70.25270000
C      -44.21450000     -33.98940000     -70.53160000
H      -44.86520000     -33.07670000     -70.53170000
H      -43.30410000     -33.75870000     -69.97910000
C      -46.75620000     -32.88050000     -72.65550000
H      -47.85450000     -32.99420000     -72.86600000
H      -46.65430000     -33.19870000     -71.60730000
C      -45.79920000     -33.62410000     -73.55700000
C      -46.06460000     -33.83450000     -74.90160000
C      -44.56110000     -34.22710000     -73.13320000
H      -46.80170000     -33.38520000     -75.48520000
C      -43.89900000     -34.79540000     -74.22270000
C      -43.78050000     -34.31730000     -71.91320000
C      -42.64190000     -35.09230000     -72.09900000
S      -44.78040000     -34.70110000     -75.72130000
S      -42.33780000     -35.47190000     -73.76600000
H      -41.93410000     -35.27480000     -71.30180000
