40
Properties=species:S:1:pos:R:3 #=T CELL(abcABC):=T 1.889726e+02=T 90.00000=T Traj:=T positionsangstrom=T Step:=T 0=T Bead:=T pbc="F F F"
C      -45.03340000     -31.99220000     -67.53450000
C      -45.99840000     -32.96730000     -67.82910000
C      -47.03720000     -32.57380000     -68.70760000
C      -47.09100000     -31.35640000     -69.38830000
C      -46.05580000     -30.40600000     -69.09390000
C      -45.13340000     -30.76850000     -68.17890000
H      -44.16320000     -32.20730000     -66.87910000
H      -47.82040000     -33.30950000     -68.90050000
H      -46.16080000     -29.44690000     -69.61290000
H      -44.37030000     -30.11810000     -67.82090000
C      -48.29000000     -31.11240000     -70.31700000
H      -49.01710000     -30.32920000     -69.87560000
H      -48.90910000     -31.98840000     -70.46360000
C      -45.97180000     -34.29650000     -67.13110000
H      -45.57280000     -34.15370000     -66.11250000
H      -46.97110000     -34.79380000     -67.11840000
S      -47.78960000     -30.37200000     -71.94310000
S      -44.65810000     -35.37080000     -67.93460000
C      -46.42560000     -31.40840000     -72.44920000
H      -45.96820000     -30.87530000     -73.33960000
H      -45.65470000     -31.30600000     -71.71260000
C      -44.87400000     -35.21710000     -69.84250000
H      -45.90360000     -35.07960000     -70.10380000
H      -44.47560000     -36.14230000     -70.21600000
C      -44.08360000     -34.03910000     -70.51310000
H      -44.72610000     -33.16210000     -70.44210000
H      -43.24010000     -33.69870000     -69.91720000
C      -46.85740000     -32.83930000     -72.82090000
H      -47.73400000     -32.81450000     -73.45670000
H      -47.11420000     -33.42290000     -71.92480000
C      -45.78420000     -33.66050000     -73.56670000
C      -45.99670000     -33.90320000     -74.89730000
C      -44.49260000     -34.20780000     -73.14930000
H      -46.86900000     -33.63080000     -75.46500000
C      -43.85160000     -34.85270000     -74.17670000
C      -43.70140000     -34.32250000     -71.91670000
C      -42.51930000     -34.96500000     -72.18760000
S      -44.74510000     -34.83090000     -75.69360000
S      -42.31630000     -35.48100000     -73.83700000
H      -41.84890000     -35.23390000     -71.36830000
