40
Properties=species:S:1:pos:R:3 #=T CELL(abcABC):=T 1.889726e+02=T 90.00000=T Traj:=T positionsangstrom=T Step:=T 0=T Bead:=T pbc="F F F"
C      -45.51650000     -31.91180000     -67.55460000
C      -46.41520000     -32.91620000     -67.96990000
C      -47.27270000     -32.62360000     -69.00260000
C      -47.38520000     -31.30730000     -69.46690000
C      -46.48270000     -30.34830000     -69.03110000
C      -45.55290000     -30.61710000     -67.99290000
H      -44.71840000     -32.16040000     -66.90410000
H      -48.07470000     -33.38150000     -69.26830000
H      -46.49360000     -29.24390000     -69.32500000
H      -44.93130000     -29.87240000     -67.57930000
C      -48.29830000     -30.99200000     -70.66670000
H      -49.12420000     -30.26870000     -70.50090000
H      -48.68230000     -31.90980000     -71.06040000
C      -46.30310000     -34.39340000     -67.47700000
H      -46.29320000     -34.39880000     -66.38370000
H      -47.12250000     -35.08010000     -67.75570000
S      -47.39940000     -30.23130000     -72.01100000
S      -44.61720000     -35.10550000     -67.93220000
C      -46.10670000     -31.43290000     -72.44730000
H      -45.70380000     -30.98970000     -73.35730000
H      -45.38070000     -31.42760000     -71.64000000
C      -44.72200000     -35.18130000     -69.79250000
H      -45.72260000     -35.49980000     -70.04490000
H      -43.94610000     -35.88780000     -70.04610000
C      -44.26890000     -33.89910000     -70.56690000
H      -45.06810000     -33.20830000     -70.77260000
H      -43.64810000     -33.20550000     -69.97980000
C      -46.64970000     -32.79560000     -72.75980000
H      -47.66840000     -32.70680000     -73.23240000
H      -46.85790000     -33.40810000     -71.91450000
C      -45.64070000     -33.67530000     -73.55160000
C      -45.89400000     -34.11590000     -74.84380000
C      -44.35790000     -34.21660000     -73.09280000
H      -46.79760000     -33.88270000     -75.37460000
C      -43.74050000     -34.97150000     -74.10980000
C      -43.60970000     -34.30940000     -71.86030000
C      -42.41330000     -35.01220000     -72.00810000
S      -44.67870000     -35.17630000     -75.56610000
S      -42.23250000     -35.60530000     -73.66260000
H      -41.70540000     -35.17740000     -71.22780000
