40
Properties=species:S:1:pos:R:3 #=T CELL(abcABC):=T 1.889726e+02=T 90.00000=T Traj:=T positionsangstrom=T Step:=T 0=T Bead:=T pbc="F F F"
C      -45.52240000     -34.39310000     -75.42030000
C      -45.00850000     -33.20750000     -74.81830000
C      -45.88320000     -32.40890000     -74.04900000
C      -47.21940000     -32.70600000     -73.88160000
C      -47.71630000     -33.80920000     -74.54830000
C      -46.89150000     -34.69180000     -75.23570000
H      -44.89440000     -35.00830000     -76.03960000
H      -45.42960000     -31.49480000     -73.67650000
H      -48.79290000     -34.03060000     -74.45280000
H      -47.31980000     -35.63550000     -75.67220000
C      -48.14460000     -31.77570000     -73.06090000
H      -49.18430000     -32.13870000     -73.13810000
H      -48.20760000     -30.70670000     -73.46360000
C      -43.60730000     -32.72650000     -75.07860000
H      -43.13310000     -32.85500000     -76.14130000
H      -43.54010000     -31.65300000     -74.98300000
S      -47.68280000     -31.82650000     -71.28120000
S      -42.23080000     -33.55470000     -73.97310000
C      -48.09660000     -33.61320000     -70.95130000
H      -48.65840000     -33.66550000     -69.99350000
H      -48.65000000     -33.90440000     -71.83320000
C      -42.46470000     -33.03280000     -72.24340000
H      -42.40450000     -31.91480000     -72.20200000
H      -41.55560000     -33.44630000     -71.73120000
C      -43.75460000     -33.61650000     -71.57180000
H      -44.57000000     -33.20280000     -72.10790000
H      -43.85100000     -34.68450000     -71.72400000
C      -46.85410000     -34.63300000     -70.79520000
H      -46.08910000     -34.51150000     -71.54600000
H      -47.29840000     -35.66350000     -70.96220000
C      -46.21140000     -34.52140000     -69.41570000
C      -46.75780000     -34.97400000     -68.26020000
C      -44.95460000     -33.81080000     -69.22580000
H      -47.70260000     -35.47170000     -68.07630000
C      -44.67410000     -33.69380000     -67.85450000
C      -43.91950000     -33.29420000     -70.11780000
C      -42.90660000     -32.76610000     -69.38990000
S      -45.92920000     -34.35970000     -66.81330000
S      -43.24880000     -32.69000000     -67.68050000
H      -41.95380000     -32.31960000     -69.55980000
