40
Properties=species:S:1:pos:R:3 #=T CELL(abcABC):=T 1.889726e+02=T 90.00000=T Traj:=T positionsangstrom=T Step:=T 0=T Bead:=T pbc="F F F"
C      -45.12970000     -32.12470000     -67.82040000
C      -46.18900000     -32.88620000     -68.13600000
C      -47.26150000     -32.30120000     -68.80480000
C      -47.07890000     -31.00160000     -69.33950000
C      -45.95490000     -30.20860000     -69.08550000
C      -44.98410000     -30.81660000     -68.29650000
H      -44.32410000     -32.57900000     -67.28390000
H      -48.20860000     -32.81470000     -69.04050000
H      -45.90260000     -29.27560000     -69.61720000
H      -44.07890000     -30.25560000     -68.10170000
C      -48.21850000     -30.41690000     -70.09430000
H      -48.11710000     -29.38120000     -70.06560000
H      -49.14560000     -30.73030000     -69.64750000
C      -46.24150000     -34.29670000     -67.70880000
H      -46.33610000     -34.32390000     -66.65450000
H      -47.12650000     -34.78290000     -68.10600000
S      -48.27900000     -31.01950000     -71.90290000
S      -44.73120000     -35.30780000     -68.00320000
C      -46.57420000     -31.64940000     -72.11170000
H      -46.24240000     -31.05520000     -72.96580000
H      -45.91630000     -31.23030000     -71.31400000
C      -44.49260000     -35.40320000     -69.83630000
H      -45.42810000     -35.61300000     -70.40450000
H      -43.77730000     -36.23720000     -70.03920000
C      -43.75960000     -34.21670000     -70.42290000
H      -44.38590000     -33.30220000     -70.37050000
H      -42.85330000     -33.99530000     -69.83710000
C      -46.55490000     -33.20240000     -72.20340000
H      -47.65440000     -33.50310000     -72.51780000
H      -46.35650000     -33.68690000     -71.21650000
C      -45.65250000     -33.73180000     -73.26590000
C      -45.92500000     -33.64550000     -74.58390000
C      -44.41070000     -34.39310000     -73.02160000
H      -46.98830000     -33.41610000     -74.91900000
C      -43.79800000     -34.72990000     -74.21790000
C      -43.49620000     -34.56390000     -71.89930000
C      -42.40670000     -35.27680000     -72.31890000
S      -44.69350000     -34.24210000     -75.66170000
S      -42.27120000     -35.49730000     -74.07330000
H      -41.59470000     -35.43400000     -71.57040000
