40
Properties=species:S:1:pos:R:3 #=T CELL(abcABC):=T 1.889726e+02=T 90.00000=T Traj:=T positionsangstrom=T Step:=T 0=T Bead:=T pbc="F F F"
C      -44.95600000     -32.08020000     -67.97720000
C      -46.11560000     -32.90040000     -68.12860000
C      -47.28620000     -32.39210000     -68.63800000
C      -47.20800000     -31.08090000     -69.13780000
C      -46.08050000     -30.25390000     -68.93780000
C      -44.91700000     -30.75770000     -68.29790000
H      -44.09320000     -32.53860000     -67.44110000
H      -48.20440000     -32.96520000     -68.78040000
H      -46.23300000     -29.21960000     -69.23200000
H      -44.05800000     -30.13980000     -68.22520000
C      -48.32320000     -30.52680000     -69.94210000
H      -48.35660000     -29.37710000     -69.81480000
H      -49.30170000     -30.94090000     -69.65000000
C      -46.23390000     -34.29490000     -67.59540000
H      -46.21610000     -34.18300000     -66.48110000
H      -47.17610000     -34.82020000     -67.94750000
S      -48.20480000     -30.69660000     -71.76930000
S      -44.68130000     -35.27080000     -67.96140000
C      -46.62170000     -31.66790000     -72.22080000
H      -46.21890000     -31.27950000     -73.18680000
H      -45.95270000     -31.49010000     -71.44830000
C      -44.75880000     -35.44610000     -69.77930000
H      -45.79710000     -35.41460000     -70.06400000
H      -44.30890000     -36.42720000     -69.99830000
C      -43.93730000     -34.28190000     -70.46750000
H      -44.52890000     -33.33840000     -70.44030000
H      -43.00710000     -34.11820000     -69.92300000
C      -46.68980000     -33.23580000     -72.44770000
H      -47.63920000     -33.47900000     -72.89520000
H      -46.72970000     -33.77450000     -71.55690000
C      -45.58480000     -33.74990000     -73.39510000
C      -45.92510000     -33.71310000     -74.72830000
C      -44.34340000     -34.38420000     -73.16190000
H      -46.85280000     -33.29320000     -75.29750000
C      -43.65610000     -34.67590000     -74.35220000
C      -43.58650000     -34.66930000     -71.93810000
C      -42.41960000     -35.25800000     -72.28340000
S      -44.66680000     -34.35420000     -75.78310000
S      -42.17030000     -35.53480000     -74.02030000
H      -41.63160000     -35.50610000     -71.58070000
