40
Properties=species:S:1:pos:R:3 #=T CELL(abcABC):=T 1.889726e+02=T 90.00000=T Traj:=T positionsangstrom=T Step:=T 0=T Bead:=T pbc="F F F"
C      -45.10030000     -31.96630000     -67.70950000
C      -46.14330000     -32.74000000     -68.20680000
C      -47.06860000     -32.05880000     -69.00620000
C      -46.96460000     -30.72900000     -69.40070000
C      -45.89840000     -29.91690000     -68.87430000
C      -45.02560000     -30.57870000     -67.97300000
H      -44.36220000     -32.52210000     -67.07330000
H      -47.72660000     -32.63890000     -69.62360000
H      -45.77100000     -28.89230000     -69.14830000
H      -44.13990000     -30.10470000     -67.65690000
C      -47.95270000     -30.13800000     -70.41410000
H      -47.42600000     -29.38860000     -70.93850000
H      -48.82540000     -29.82820000     -69.86940000
C      -46.33470000     -34.29800000     -67.96510000
H      -46.66680000     -34.45070000     -66.95700000
H      -47.16870000     -34.66730000     -68.61600000
S      -48.58300000     -31.41630000     -71.61790000
S      -44.89850000     -35.32330000     -68.18780000
C      -47.07190000     -31.81910000     -72.56310000
H      -47.35500000     -31.66480000     -73.61910000
H      -46.36910000     -31.06480000     -72.38550000
C      -44.54970000     -35.35550000     -69.99940000
H      -45.45650000     -35.50730000     -70.60560000
H      -44.00660000     -36.34120000     -70.05990000
C      -43.66500000     -34.16940000     -70.50740000
H      -44.11270000     -33.16720000     -70.26680000
H      -42.71940000     -34.11620000     -69.91420000
C      -46.51670000     -33.19910000     -72.12650000
H      -47.37140000     -33.88280000     -71.95550000
H      -46.08840000     -33.02150000     -71.13870000
C      -45.57810000     -33.78730000     -73.18410000
C      -45.99830000     -33.86420000     -74.48290000
C      -44.25040000     -34.30150000     -73.02520000
H      -46.92310000     -33.68450000     -74.88950000
C      -43.72000000     -34.82680000     -74.19710000
C      -43.31930000     -34.38730000     -71.93030000
C      -42.06090000     -34.90130000     -72.25150000
S      -44.75040000     -34.62750000     -75.52750000
S      -42.10430000     -35.43110000     -73.98250000
H      -41.29540000     -35.18450000     -71.56800000
