40
Properties=species:S:1:pos:R:3 #=T CELL(abcABC):=T 1.889726e+02=T 90.00000=T Traj:=T positionsangstrom=T Step:=T 0=T Bead:=T pbc="F F F"
C      -44.92860000     -31.99900000     -67.75380000
C      -46.01650000     -32.87970000     -67.92300000
C      -47.14080000     -32.48480000     -68.62830000
C      -47.17740000     -31.21540000     -69.21280000
C      -46.12240000     -30.29710000     -68.99040000
C      -44.97920000     -30.73120000     -68.26480000
H      -44.01590000     -32.32140000     -67.20140000
H      -48.01050000     -33.09680000     -68.77140000
H      -46.11460000     -29.39050000     -69.50160000
H      -44.17490000     -30.03090000     -68.11770000
C      -48.38620000     -30.78180000     -69.96250000
H      -48.75940000     -29.81260000     -69.64030000
H      -49.14740000     -31.45650000     -69.75990000
C      -45.86050000     -34.26960000     -67.42840000
H      -45.76730000     -34.26720000     -66.33740000
H      -46.80020000     -34.81630000     -67.56250000
S      -48.11000000     -30.61290000     -71.83990000
S      -44.61650000     -35.42400000     -68.03920000
C      -46.54870000     -31.51300000     -72.22150000
H      -45.99580000     -30.97460000     -73.06710000
H      -45.96760000     -31.36070000     -71.28280000
C      -44.83990000     -35.43980000     -69.82190000
H      -45.92490000     -35.44710000     -70.07730000
H      -44.48960000     -36.41180000     -70.14940000
C      -44.03880000     -34.20490000     -70.51390000
H      -44.56790000     -33.27860000     -70.36110000
H      -43.10520000     -34.15800000     -69.96630000
C      -46.67600000     -33.00450000     -72.58020000
H      -47.61260000     -33.16410000     -73.13780000
H      -46.69370000     -33.57470000     -71.59280000
C      -45.64720000     -33.63900000     -73.44970000
C      -45.92750000     -33.67550000     -74.80850000
C      -44.45750000     -34.32570000     -73.08930000
H      -46.63250000     -33.08170000     -75.42360000
C      -43.80570000     -34.73130000     -74.28440000
C      -43.66080000     -34.59620000     -71.86950000
C      -42.48300000     -35.21780000     -72.23610000
S      -44.69510000     -34.49030000     -75.80190000
S      -42.30770000     -35.46750000     -74.01230000
H      -41.69680000     -35.58370000     -71.59480000
