40
Properties=species:S:1:pos:R:3 #=T CELL(abcABC):=T 1.889726e+02=T 90.00000=T Traj:=T positionsangstrom=T Step:=T 0=T Bead:=T pbc="F F F"
C      -44.69100000     -32.24870000     -67.99090000
C      -46.03200000     -32.82930000     -67.98950000
C      -47.00570000     -32.14780000     -68.73450000
C      -46.81130000     -30.85690000     -69.24850000
C      -45.57680000     -30.32930000     -69.14180000
C      -44.48620000     -30.98210000     -68.52770000
H      -43.84160000     -32.68600000     -67.36150000
H      -47.95860000     -32.68740000     -68.84130000
H      -45.40900000     -29.35890000     -69.50640000
H      -43.50800000     -30.58460000     -68.57180000
C      -47.95460000     -30.28170000     -70.08930000
H      -47.62800000     -29.44510000     -70.66600000
H      -48.73760000     -29.97170000     -69.48770000
C      -46.26480000     -34.27170000     -67.62870000
H      -46.31200000     -34.51710000     -66.57200000
H      -47.21940000     -34.56350000     -68.09200000
S      -48.57820000     -31.61840000     -71.31890000
S      -44.86730000     -35.43520000     -68.09380000
C      -47.00160000     -32.07760000     -72.24360000
H      -46.86790000     -31.43910000     -73.09500000
H      -46.16350000     -31.85850000     -71.65160000
C      -44.35490000     -35.30040000     -69.84360000
H      -45.09680000     -35.80060000     -70.47490000
H      -43.46680000     -35.90830000     -69.91930000
C      -44.02970000     -33.89900000     -70.44560000
H      -44.91040000     -33.24210000     -70.33770000
H      -43.16110000     -33.27740000     -69.98440000
C      -47.03230000     -33.58170000     -72.50850000
H      -48.04170000     -33.98180000     -72.87480000
H      -46.93690000     -34.02890000     -71.52070000
C      -45.90970000     -33.98540000     -73.44940000
C      -46.12850000     -34.14550000     -74.79110000
C      -44.51990000     -34.32820000     -73.09480000
H      -47.08420000     -33.97540000     -75.14540000
C      -43.81370000     -34.58860000     -74.27090000
C      -43.63660000     -34.08970000     -71.97010000
C      -42.29690000     -34.25990000     -72.32650000
S      -44.71070000     -34.58990000     -75.75430000
S      -42.05830000     -34.67150000     -73.98700000
H      -41.41130000     -34.28010000     -71.63660000
