40
Properties=species:S:1:pos:R:3 #=T CELL(abcABC):=T 1.889726e+02=T 90.00000=T Traj:=T positionsangstrom=T Step:=T 0=T Bead:=T pbc="F F F"
C      -44.90800000     -31.79710000     -67.43990000
C      -45.93080000     -32.74160000     -67.84760000
C      -46.79380000     -32.36120000     -68.91650000
C      -46.73280000     -31.10520000     -69.49980000
C      -45.69150000     -30.22050000     -69.04850000
C      -44.79660000     -30.56380000     -68.04670000
H      -44.25370000     -31.99790000     -66.55850000
H      -47.35040000     -33.24090000     -69.34520000
H      -45.67830000     -29.18340000     -69.41640000
H      -43.98740000     -29.84040000     -67.72420000
C      -47.75620000     -30.36930000     -70.45820000
H      -47.12870000     -29.54530000     -70.93400000
H      -48.53050000     -29.94220000     -69.82780000
C      -45.98770000     -34.14860000     -67.32500000
H      -45.91140000     -34.11940000     -66.22540000
H      -46.99510000     -34.63770000     -67.50410000
S      -48.70730000     -31.39600000     -71.74390000
S      -44.61920000     -35.28340000     -67.82670000
C      -47.32370000     -32.02860000     -72.87800000
H      -47.73790000     -32.00980000     -73.89090000
H      -46.53340000     -31.26560000     -72.96740000
C      -44.71770000     -35.27930000     -69.76870000
H      -45.76720000     -35.33000000     -69.98860000
H      -44.28870000     -36.17170000     -70.23270000
C      -44.04400000     -34.11530000     -70.46670000
H      -44.68280000     -33.23270000     -70.36860000
H      -43.22510000     -33.80560000     -69.84200000
C      -46.88490000     -33.43030000     -72.51710000
H      -47.71490000     -34.11970000     -72.38800000
H      -46.45820000     -33.41180000     -71.44980000
C      -45.85910000     -33.94100000     -73.48710000
C      -46.08990000     -34.04350000     -74.82960000
C      -44.53100000     -34.40340000     -73.09480000
H      -46.99390000     -33.72070000     -75.43640000
C      -43.78430000     -34.79530000     -74.21320000
C      -43.64930000     -34.39320000     -71.92410000
C      -42.32560000     -34.63370000     -72.21450000
S      -44.68190000     -34.61710000     -75.72970000
S      -42.07690000     -34.99760000     -73.97740000
H      -41.51540000     -34.69900000     -71.49710000
