40
Properties=species:S:1:pos:R:3 #=T CELL(abcABC):=T 1.889726e+02=T 90.00000=T Traj:=T positionsangstrom=T Step:=T 0=T Bead:=T pbc="F F F"
C      -45.39300000     -32.00990000     -67.31550000
C      -46.08130000     -33.14480000     -67.75330000
C      -47.17340000     -33.11270000     -68.60240000
C      -47.47610000     -31.91950000     -69.26450000
C      -46.70600000     -30.74270000     -68.94120000
C      -45.75830000     -30.76690000     -67.90620000
H      -44.54520000     -32.07980000     -66.60320000
H      -47.74400000     -33.95810000     -68.93180000
H      -47.00350000     -29.83520000     -69.43760000
H      -45.16870000     -29.83140000     -67.53600000
C      -48.58110000     -31.81670000     -70.24510000
H      -49.56390000     -31.56010000     -69.77030000
H      -48.82240000     -32.78030000     -70.70620000
C      -45.67530000     -34.49180000     -67.18830000
H      -45.53280000     -34.57880000     -66.11630000
H      -46.46250000     -35.20440000     -67.37190000
S      -48.28280000     -30.74940000     -71.68220000
S      -44.20210000     -35.15240000     -68.11280000
C      -46.70930000     -31.32860000     -72.53500000
H      -46.91810000     -31.13980000     -73.60390000
H      -45.89350000     -30.71020000     -72.25680000
C      -44.60900000     -34.97490000     -69.94500000
H      -45.67350000     -34.66840000     -70.00760000
H      -44.47960000     -35.96150000     -70.42930000
C      -43.67850000     -33.97320000     -70.58990000
H      -44.17350000     -32.98650000     -70.37340000
H      -42.76080000     -34.15280000     -70.03090000
C      -46.38460000     -32.84480000     -72.35220000
H      -47.42590000     -33.40570000     -72.31390000
H      -45.94160000     -33.03660000     -71.36890000
C      -45.55850000     -33.42840000     -73.47910000
C      -45.89000000     -33.38190000     -74.78000000
C      -44.31710000     -34.15950000     -73.17190000
H      -46.71790000     -32.89300000     -75.25840000
C      -43.73890000     -34.60630000     -74.38050000
C      -43.45100000     -34.34890000     -72.01390000
C      -42.34850000     -35.05210000     -72.39420000
S      -44.70950000     -34.25800000     -75.77010000
S      -42.19370000     -35.36500000     -74.18660000
H      -41.57790000     -35.31710000     -71.72460000
