40
Properties=species:S:1:pos:R:3 #=T CELL(abcABC):=T 1.889726e+02=T 90.00000=T Traj:=T positionsangstrom=T Step:=T 0=T Bead:=T pbc="F F F"
C      -45.79450000     -32.18550000     -67.40940000
C      -46.23640000     -33.31910000     -68.08070000
C      -47.17260000     -33.12250000     -69.12990000
C      -47.60840000     -31.81180000     -69.50300000
C      -47.05940000     -30.69450000     -68.85510000
C      -46.10360000     -30.88150000     -67.80320000
H      -45.03120000     -32.44800000     -66.69730000
H      -47.69000000     -33.93140000     -69.65520000
H      -47.38490000     -29.66510000     -69.13980000
H      -45.66930000     -29.98890000     -67.48440000
C      -48.66120000     -31.61150000     -70.53310000
H      -49.60010000     -31.12840000     -70.16510000
H      -48.99090000     -32.60750000     -70.89300000
C      -45.79270000     -34.70280000     -67.63220000
H      -46.04520000     -34.82020000     -66.54580000
H      -46.33390000     -35.49280000     -68.13640000
S      -48.13040000     -30.56890000     -71.89040000
S      -43.94900000     -34.95120000     -67.82110000
C      -46.50860000     -31.22680000     -72.47580000
H      -46.47320000     -30.94620000     -73.48780000
H      -45.73810000     -30.81900000     -71.75710000
C      -43.84410000     -35.12800000     -69.68180000
H      -44.87030000     -35.39850000     -70.04450000
H      -43.13450000     -35.89950000     -70.03090000
C      -43.45670000     -33.83570000     -70.46130000
H      -44.20160000     -33.08070000     -70.26570000
H      -42.43640000     -33.51860000     -70.18240000
C      -46.40590000     -32.75810000     -72.31350000
H      -47.43050000     -33.07130000     -72.54690000
H      -46.14820000     -33.06030000     -71.20010000
C      -45.51010000     -33.38110000     -73.35140000
C      -45.92280000     -33.36550000     -74.62970000
C      -44.26910000     -34.10200000     -73.09610000
H      -46.85490000     -32.80790000     -74.96240000
C      -43.81000000     -34.65660000     -74.29860000
C      -43.47010000     -34.38990000     -71.91240000
C      -42.41870000     -35.22760000     -72.31440000
S      -44.78120000     -34.23930000     -75.68380000
S      -42.35610000     -35.64490000     -74.09270000
H      -41.68450000     -35.71580000     -71.61190000
