40
Properties=species:S:1:pos:R:3 #=T CELL(abcABC):=T 1.889726e+02=T 90.00000=T Traj:=T positionsangstrom=T Step:=T 0=T Bead:=T pbc="F F F"
C      -45.89670000     -32.00120000     -67.15740000
C      -46.38130000     -33.04750000     -68.03860000
C      -47.18750000     -32.77920000     -69.13670000
C      -47.55870000     -31.45210000     -69.46360000
C      -47.01820000     -30.41730000     -68.69060000
C      -46.17210000     -30.66490000     -67.57770000
H      -45.23270000     -32.08980000     -66.29270000
H      -47.53660000     -33.61320000     -69.74840000
H      -47.41560000     -29.43620000     -69.00140000
H      -45.83870000     -29.89030000     -66.89440000
C      -48.54630000     -31.17090000     -70.54620000
H      -49.20290000     -30.41060000     -70.25580000
H      -49.13970000     -32.03660000     -70.78510000
C      -45.96730000     -34.50220000     -67.69350000
H      -46.47570000     -34.74630000     -66.69740000
H      -46.35410000     -35.19570000     -68.42330000
S      -47.79040000     -30.60940000     -72.15670000
S      -44.13960000     -34.76410000     -67.65870000
C      -46.46390000     -31.84520000     -72.27290000
H      -45.61050000     -31.42820000     -72.75950000
H      -46.14140000     -32.05770000     -71.31090000
C      -43.50170000     -34.30140000     -69.42270000
H      -42.70420000     -35.04700000     -69.45620000
H      -43.04000000     -33.29940000     -69.42640000
C      -44.54000000     -34.46040000     -70.58040000
H      -45.37810000     -35.19210000     -70.48810000
H      -45.00070000     -33.49570000     -70.68870000
C      -46.86160000     -33.23550000     -72.89020000
H      -47.74960000     -33.15540000     -73.56170000
H      -47.12110000     -33.79500000     -72.03010000
C      -45.77130000     -33.85750000     -73.68000000
C      -45.77050000     -33.88430000     -75.11730000
C      -44.46920000     -34.40860000     -73.23630000
H      -46.52960000     -33.44500000     -75.75210000
C      -43.59740000     -34.73630000     -74.28690000
C      -43.87130000     -34.76160000     -71.92760000
C      -42.64420000     -35.28420000     -72.03620000
S      -44.25630000     -34.49020000     -75.84200000
S      -42.12920000     -35.39990000     -73.72590000
H      -42.01070000     -35.65450000     -71.30260000
