40
Properties=species:S:1:pos:R:3 #=T CELL(abcABC):=T 1.889726e+02=T 90.00000=T Traj:=T positionsangstrom=T Step:=T 0=T Bead:=T pbc="F F F"
C      -43.68990000     -34.63680000     -68.05340000
C      -45.07750000     -34.73730000     -68.25500000
C      -45.55420000     -35.61710000     -69.21010000
C      -44.66630000     -36.42010000     -69.92470000
C      -43.22140000     -36.39990000     -69.70800000
C      -42.79780000     -35.47540000     -68.76960000
H      -43.41450000     -34.14300000     -67.12960000
H      -46.55200000     -35.56090000     -69.49670000
H      -42.53660000     -36.97990000     -70.33270000
H      -41.73260000     -35.33060000     -68.67480000
C      -45.33740000     -37.25530000     -70.96830000
H      -46.19450000     -37.88300000     -70.65030000
H      -44.62070000     -38.02400000     -71.27880000
C      -46.10740000     -34.07220000     -67.39520000
H      -47.10480000     -34.37750000     -67.69980000
H      -45.86770000     -34.26330000     -66.39860000
S      -45.82040000     -36.32530000     -72.56030000
S      -46.00300000     -32.21920000     -67.45790000
C      -44.26330000     -35.56620000     -73.06710000
H      -43.53400000     -36.20760000     -72.68020000
H      -44.08960000     -35.57460000     -74.21900000
C      -46.53210000     -31.66560000     -69.11890000
H      -46.42240000     -30.56600000     -69.17000000
H      -47.57830000     -31.68580000     -69.17330000
C      -45.75940000     -32.24870000     -70.31880000
H      -44.72850000     -32.21530000     -69.99710000
H      -46.08640000     -33.25980000     -70.44950000
C      -43.92960000     -34.16280000     -72.43980000
H      -42.84540000     -34.05680000     -72.25130000
H      -44.42370000     -34.15460000     -71.43290000
C      -44.53310000     -33.03240000     -73.29990000
C      -44.16810000     -32.89340000     -74.62690000
C      -45.40920000     -31.96360000     -72.84320000
H      -43.51020000     -33.50410000     -75.24720000
C      -45.83300000     -31.12690000     -73.85010000
C      -45.98760000     -31.52570000     -71.57400000
C      -46.81180000     -30.43560000     -71.67210000
S      -45.07900000     -31.55520000     -75.46850000
S      -46.73050000     -29.75900000     -73.32240000
H      -47.50320000     -30.09630000     -70.89540000
