40
Properties=species:S:1:pos:R:3 #=T CELL(abcABC):=T 1.889726e+02=T 90.00000=T Traj:=T positionsangstrom=T Step:=T 0=T Bead:=T pbc="F F F"
C      -46.33830000     -31.44190000     -67.36960000
C      -46.53530000     -32.65090000     -68.06060000
C      -47.38360000     -32.72650000     -69.14970000
C      -47.94160000     -31.54410000     -69.64850000
C      -47.63270000     -30.31010000     -69.04300000
C      -46.83640000     -30.24290000     -67.91840000
H      -45.52850000     -31.37820000     -66.65590000
H      -47.73170000     -33.72430000     -69.46220000
H      -48.20130000     -29.46780000     -69.46410000
H      -46.49480000     -29.31870000     -67.44870000
C      -48.90930000     -31.56300000     -70.84030000
H      -49.76650000     -30.98470000     -70.67190000
H      -49.25470000     -32.61430000     -71.03630000
C      -45.84450000     -33.86340000     -67.51270000
H      -46.02760000     -33.89920000     -66.45110000
H      -46.28550000     -34.77220000     -68.00730000
S      -48.11410000     -30.90450000     -72.46060000
S      -44.03740000     -33.88800000     -67.80610000
C      -46.43860000     -31.69860000     -72.59560000
H      -45.83230000     -31.16870000     -73.34280000
H      -45.85820000     -31.51300000     -71.69080000
C      -43.85300000     -33.81730000     -69.65990000
H      -42.74600000     -33.75460000     -69.80990000
H      -44.21610000     -32.83750000     -70.05440000
C      -44.51060000     -35.03060000     -70.31610000
H      -44.21990000     -35.93250000     -69.72440000
H      -45.60310000     -34.87700000     -70.23910000
C      -46.52150000     -33.20300000     -72.97100000
H      -47.25910000     -33.32540000     -73.86710000
H      -46.85390000     -33.66900000     -72.05970000
C      -45.21840000     -33.80010000     -73.47680000
C      -44.91030000     -33.39500000     -74.76410000
C      -44.16120000     -34.60370000     -72.93580000
H      -45.58000000     -32.82750000     -75.35720000
C      -43.23890000     -34.97720000     -73.96840000
C      -43.88500000     -35.30040000     -71.65410000
C      -42.87760000     -36.19910000     -71.83100000
S      -43.64060000     -34.40180000     -75.56090000
S      -42.17380000     -36.26400000     -73.52030000
H      -42.40030000     -37.00020000     -71.12340000
