40
Properties=species:S:1:pos:R:3 #=T CELL(abcABC):=T 1.889726e+02=T 90.00000=T Traj:=T positionsangstrom=T Step:=T 0=T Bead:=T pbc="F F F"
C      -46.37860000     -31.07750000     -67.38510000
C      -46.43350000     -32.38740000     -67.95040000
C      -47.33590000     -32.69290000     -68.99750000
C      -47.99060000     -31.62310000     -69.61650000
C      -47.86310000     -30.29580000     -69.14790000
C      -47.05760000     -30.04190000     -67.99120000
H      -45.68020000     -30.96860000     -66.51960000
H      -47.47330000     -33.66030000     -69.40960000
H      -48.35900000     -29.48260000     -69.69380000
H      -46.91870000     -29.01310000     -67.56990000
C      -48.69960000     -31.87970000     -70.91860000
H      -49.63780000     -31.30710000     -70.80380000
H      -48.97720000     -32.87550000     -71.07180000
C      -45.56770000     -33.52670000     -67.34870000
H      -45.38420000     -33.34890000     -66.25690000
H      -46.02630000     -34.51420000     -67.45270000
S      -47.90700000     -31.05060000     -72.41510000
S      -43.84580000     -33.55200000     -68.03280000
C      -46.20600000     -31.61340000     -72.61950000
H      -45.92870000     -31.31370000     -73.59530000
H      -45.46200000     -31.23000000     -71.87660000
C      -43.99730000     -33.68780000     -69.89230000
H      -42.97980000     -33.67430000     -70.32020000
H      -44.62390000     -32.88860000     -70.26710000
C      -44.50960000     -35.07120000     -70.38390000
H      -44.28880000     -35.79880000     -69.63660000
H      -45.56260000     -34.96010000     -70.54690000
C      -46.28510000     -33.14380000     -72.55610000
H      -47.26500000     -33.46250000     -72.86900000
H      -46.17830000     -33.38830000     -71.52340000
C      -45.11960000     -33.69230000     -73.34020000
C      -44.92260000     -33.37990000     -74.68250000
C      -44.24670000     -34.77260000     -72.93450000
H      -45.60770000     -32.72420000     -75.26910000
C      -43.49630000     -35.28370000     -74.01270000
C      -43.92740000     -35.49800000     -71.72480000
C      -43.05110000     -36.51140000     -71.86150000
S      -43.79420000     -34.39040000     -75.52430000
S      -42.42530000     -36.57630000     -73.52960000
H      -42.68890000     -37.17190000     -71.08000000
