40
Properties=species:S:1:pos:R:3 #=T CELL(abcABC):=T 1.889726e+02=T 90.00000=T Traj:=T positionsangstrom=T Step:=T 0=T Bead:=T pbc="F F F"
C      -46.13010000     -30.95200000     -67.33130000
C      -46.17570000     -32.23200000     -67.92030000
C      -47.03960000     -32.40750000     -69.00780000
C      -47.80070000     -31.39650000     -69.60510000
C      -47.81180000     -30.14140000     -68.95070000
C      -46.98720000     -29.93700000     -67.83940000
H      -45.56870000     -30.79340000     -66.48310000
H      -46.94600000     -33.33260000     -69.57380000
H      -48.32890000     -29.22840000     -69.33130000
H      -47.00390000     -29.00830000     -67.34290000
C      -48.64010000     -31.66620000     -70.86880000
H      -49.62950000     -31.25760000     -70.89840000
H      -48.74200000     -32.74810000     -71.10110000
C      -45.41540000     -33.44130000     -67.42430000
H      -45.36200000     -33.41490000     -66.33070000
H      -46.04330000     -34.36360000     -67.68260000
S      -47.98930000     -30.90170000     -72.40380000
S      -43.62150000     -33.54800000     -68.17780000
C      -46.32340000     -31.69720000     -72.73650000
H      -45.96170000     -31.44950000     -73.76100000
H      -45.57300000     -31.43340000     -72.01020000
C      -43.87620000     -33.77070000     -69.94630000
H      -42.90000000     -33.79880000     -70.37300000
H      -44.40740000     -32.93730000     -70.37470000
C      -44.63620000     -35.09360000     -70.36870000
H      -44.50220000     -35.93750000     -69.66600000
H      -45.65880000     -34.94980000     -70.35180000
C      -46.46840000     -33.21050000     -72.77160000
H      -47.39120000     -33.40620000     -73.27280000
H      -46.51340000     -33.53630000     -71.71660000
C      -45.27140000     -33.80300000     -73.49020000
C      -44.96610000     -33.45060000     -74.77280000
C      -44.37590000     -34.87930000     -72.95590000
H      -45.37380000     -32.59300000     -75.35950000
C      -43.64830000     -35.43620000     -73.96160000
C      -44.14920000     -35.56490000     -71.70150000
C      -43.24280000     -36.58340000     -71.82830000
S      -43.78540000     -34.57920000     -75.45270000
S      -42.63320000     -36.75100000     -73.39690000
H      -42.86360000     -37.04040000     -70.98450000
