40
Properties=species:S:1:pos:R:3 #=T CELL(abcABC):=T 1.889726e+02=T 90.00000=T Traj:=T positionsangstrom=T Step:=T 0=T Bead:=T pbc="F F F"
C      -46.28600000     -31.57910000     -67.37360000
C      -46.54730000     -32.75870000     -68.07130000
C      -47.35380000     -32.72190000     -69.22770000
C      -47.84230000     -31.54770000     -69.73830000
C      -47.61640000     -30.38460000     -68.96640000
C      -46.78220000     -30.38560000     -67.84800000
H      -45.64740000     -31.56840000     -66.51080000
H      -47.50800000     -33.72440000     -69.62890000
H      -47.99640000     -29.43380000     -69.28960000
H      -46.59530000     -29.42030000     -67.47590000
C      -48.77510000     -31.54090000     -70.87580000
H      -49.64910000     -30.81210000     -70.77530000
H      -49.13510000     -32.46500000     -71.21440000
C      -45.99590000     -34.00240000     -67.50170000
H      -46.12960000     -33.98160000     -66.41130000
H      -46.45510000     -34.92320000     -67.82100000
S      -47.90040000     -30.79450000     -72.46460000
S      -44.12170000     -34.18370000     -67.71980000
C      -46.53470000     -31.97840000     -72.35340000
H      -45.60420000     -31.47520000     -72.68660000
H      -46.39760000     -32.13670000     -71.27040000
C      -43.96750000     -33.89060000     -69.56590000
H      -42.87650000     -33.74030000     -69.70360000
H      -44.46370000     -32.92710000     -69.76560000
C      -44.69490000     -35.00260000     -70.45580000
H      -44.65910000     -35.97410000     -69.91190000
H      -45.81280000     -34.80770000     -70.43460000
C      -46.60420000     -33.26050000     -73.12220000
H      -47.16250000     -33.04230000     -74.02760000
H      -47.38080000     -33.94850000     -72.56980000
C      -45.31680000     -33.76160000     -73.65020000
C      -45.09480000     -33.60250000     -75.01760000
C      -44.28450000     -34.52460000     -73.06930000
H      -45.68510000     -32.97690000     -75.69620000
C      -43.27760000     -34.93850000     -73.99210000
C      -43.96020000     -35.06280000     -71.73840000
C      -42.84170000     -35.85550000     -71.78510000
S      -43.65820000     -34.42300000     -75.63430000
S      -41.95630000     -35.88050000     -73.30240000
H      -42.37290000     -36.19590000     -70.89760000
