40
Properties=species:S:1:pos:R:3 #=T CELL(abcABC):=T 1.889726e+02=T 90.00000=T Traj:=T positionsangstrom=T Step:=T 0=T Bead:=T pbc="F F F"
C      -44.89410000     -37.32990000     -71.12450000
C      -44.81960000     -36.55800000     -72.31360000
C      -43.76550000     -35.74160000     -72.61800000
C      -42.75440000     -35.50050000     -71.72680000
C      -42.84150000     -36.18310000     -70.53940000
C      -43.86570000     -37.12640000     -70.23620000
H      -45.70220000     -38.01000000     -71.05630000
H      -43.75940000     -35.12800000     -73.49180000
H      -41.98420000     -36.10010000     -69.89840000
H      -43.84640000     -37.67150000     -69.25730000
C      -41.67920000     -34.52830000     -71.95500000
H      -40.77720000     -34.95410000     -72.34300000
H      -41.44040000     -34.08600000     -71.00460000
C      -45.94380000     -36.72030000     -73.28640000
H      -45.77420000     -36.01870000     -74.15680000
H      -46.09410000     -37.78120000     -73.60660000
S      -42.02200000     -33.07720000     -73.06550000
S      -47.60690000     -36.44660000     -72.53650000
C      -43.66360000     -32.51200000     -72.35400000
H      -43.94190000     -31.62890000     -72.86060000
H      -44.45810000     -33.26410000     -72.59090000
C      -47.71330000     -34.60610000     -72.17980000
H      -48.83940000     -34.52740000     -71.97580000
H      -47.53380000     -34.11110000     -73.12690000
C      -46.81240000     -34.05150000     -71.07280000
H      -47.00320000     -34.57500000     -70.10220000
H      -45.80950000     -34.30600000     -71.27480000
C      -43.66150000     -32.38190000     -70.80270000
H      -42.68740000     -31.99930000     -70.42090000
H      -43.85680000     -33.35490000     -70.42650000
C      -44.67660000     -31.38930000     -70.32970000
C      -44.27640000     -30.21100000     -69.80870000
C      -46.11160000     -31.57190000     -70.46690000
H      -43.23040000     -30.00040000     -69.71460000
C      -46.77050000     -30.36340000     -70.04780000
C      -47.07520000     -32.54110000     -70.88860000
C      -48.34770000     -32.00380000     -70.87770000
S      -45.64150000     -29.14400000     -69.41460000
S      -48.45150000     -30.34390000     -70.29970000
H      -49.25140000     -32.46560000     -71.21120000
