40
Properties=species:S:1:pos:R:3 #=T CELL(abcABC):=T 1.889726e+02=T 90.00000=T Traj:=T positionsangstrom=T Step:=T 0=T Bead:=T pbc="F F F"
C      -44.21850000     -31.03420000     -67.81260000
C      -45.40880000     -31.79950000     -67.96050000
C      -46.39430000     -31.39440000     -68.84970000
C      -46.29370000     -30.25490000     -69.65770000
C      -45.01790000     -29.55500000     -69.56180000
C      -44.07710000     -29.84890000     -68.61360000
H      -43.33990000     -31.40500000     -67.27130000
H      -47.26970000     -32.07490000     -68.96880000
H      -44.93740000     -28.67880000     -70.13960000
H      -43.19210000     -29.20830000     -68.46910000
C      -47.19220000     -30.04730000     -70.79970000
H      -47.81240000     -29.17300000     -70.62830000
H      -47.91320000     -30.85650000     -70.88440000
C      -45.59030000     -33.23660000     -67.42130000
H      -45.69790000     -33.19950000     -66.34780000
H      -46.53760000     -33.53700000     -67.78360000
S      -46.36020000     -29.73980000     -72.38790000
S      -44.24390000     -34.37240000     -67.73250000
C      -45.51720000     -31.37670000     -72.80910000
H      -45.12960000     -31.22700000     -73.81550000
H      -44.67370000     -31.41220000     -72.08750000
C      -44.07110000     -34.58370000     -69.59370000
H      -43.36200000     -35.41140000     -69.64820000
H      -43.71210000     -33.60820000     -69.98920000
C      -45.37950000     -34.88140000     -70.27470000
H      -45.90960000     -35.59810000     -69.60220000
H      -45.97400000     -33.94220000     -70.29020000
C      -46.42060000     -32.68700000     -72.77800000
H      -47.31820000     -32.40320000     -73.26260000
H      -46.65320000     -32.97540000     -71.73930000
C      -45.88770000     -33.86760000     -73.60890000
C      -45.98940000     -33.95460000     -75.00230000
C      -45.39620000     -35.10580000     -72.96230000
H      -46.52820000     -33.25260000     -75.70840000
C      -45.09230000     -36.08800000     -73.93000000
C      -45.15340000     -35.60500000     -71.59630000
C      -44.49820000     -36.88160000     -71.61830000
S      -45.40140000     -35.60230000     -75.56200000
S      -44.30250000     -37.54350000     -73.21020000
H      -44.19640000     -37.48630000     -70.79610000
