40
Properties=species:S:1:pos:R:3 #=T CELL(abcABC):=T 1.889726e+02=T 90.00000=T Traj:=T positionsangstrom=T Step:=T 0=T Bead:=T pbc="F F F"
C      -45.26580000     -34.37730000     -75.27690000
C      -45.18000000     -33.11600000     -74.67000000
C      -46.30550000     -32.59490000     -74.01710000
C      -47.44120000     -33.42760000     -73.84020000
C      -47.52040000     -34.72250000     -74.41370000
C      -46.43710000     -35.20840000     -75.13950000
H      -44.46660000     -34.66660000     -75.86400000
H      -46.32810000     -31.62050000     -73.48330000
H      -48.39020000     -35.40620000     -74.35190000
H      -46.38750000     -36.17600000     -75.57290000
C      -48.59260000     -32.92860000     -73.05540000
H      -49.64190000     -33.32350000     -73.14730000
H      -48.80170000     -31.86200000     -73.23610000
C      -43.93440000     -32.33090000     -74.87070000
H      -43.65370000     -32.03890000     -75.82130000
H      -43.95570000     -31.39600000     -74.30850000
S      -48.35410000     -32.82250000     -71.18800000
S      -42.43360000     -33.25360000     -74.24070000
C      -48.03140000     -34.58420000     -70.78680000
H      -48.59370000     -34.76570000     -69.86210000
H      -48.32930000     -35.25240000     -71.63420000
C      -42.45900000     -32.87440000     -72.39610000
H      -42.86150000     -31.90210000     -72.39090000
H      -41.43480000     -32.95950000     -72.07450000
C      -43.29620000     -33.83400000     -71.51250000
H      -44.21360000     -34.11030000     -72.05470000
H      -42.76340000     -34.75750000     -71.25080000
C      -46.57500000     -34.94050000     -70.57160000
H      -45.98760000     -34.65670000     -71.46570000
H      -46.45540000     -36.00360000     -70.42800000
C      -46.00580000     -34.32930000     -69.32720000
C      -46.62460000     -34.36690000     -68.10230000
C      -44.72500000     -33.56850000     -69.23960000
H      -47.52150000     -34.93900000     -67.81470000
C      -44.50330000     -33.00360000     -67.98080000
C      -43.59680000     -33.25600000     -70.17100000
C      -42.64940000     -32.43320000     -69.49840000
S      -45.78490000     -33.37000000     -66.92780000
S      -43.11580000     -31.97440000     -67.87050000
H      -41.66630000     -32.13820000     -69.80120000
