40
Properties=species:S:1:pos:R:3 #=T CELL(abcABC):=T 1.889726e+02=T 90.00000=T Traj:=T positionsangstrom=T Step:=T 0=T Bead:=T pbc="F F F"
C      -44.15400000     -31.00650000     -67.87030000
C      -45.21990000     -31.85790000     -68.12360000
C      -46.11060000     -31.50010000     -69.18990000
C      -45.93970000     -30.31750000     -69.87650000
C      -44.77540000     -29.51670000     -69.66310000
C      -43.94890000     -29.85140000     -68.57090000
H      -43.53020000     -31.16890000     -67.00930000
H      -46.93330000     -32.17730000     -69.45620000
H      -44.78520000     -28.50880000     -70.09070000
H      -43.10090000     -29.28100000     -68.28720000
C      -46.97920000     -29.82210000     -70.95000000
H      -47.36390000     -28.81280000     -70.66660000
H      -47.82420000     -30.45850000     -70.94700000
C      -45.49680000     -33.15940000     -67.40850000
H      -45.54820000     -32.99780000     -66.34130000
H      -46.44260000     -33.58720000     -67.78130000
S      -46.21230000     -29.91000000     -72.64190000
S      -44.15260000     -34.40820000     -67.73630000
C      -45.59190000     -31.63080000     -72.58530000
H      -44.86420000     -31.68680000     -73.44870000
H      -44.86560000     -31.71550000     -71.78060000
C      -44.21720000     -34.33890000     -69.54670000
H      -43.35040000     -34.95400000     -69.95020000
H      -43.99070000     -33.33780000     -70.00350000
C      -45.57820000     -34.87900000     -70.11430000
H      -45.94940000     -35.55510000     -69.38890000
H      -46.32880000     -34.08570000     -70.26820000
C      -46.62590000     -32.76420000     -72.71900000
H      -47.55070000     -32.41710000     -73.29850000
H      -46.98880000     -33.01690000     -71.76100000
C      -46.08060000     -33.90930000     -73.46090000
C      -45.88190000     -33.93830000     -74.81970000
C      -45.56330000     -35.12960000     -72.87500000
H      -46.31820000     -33.18180000     -75.40660000
C      -45.15360000     -36.02070000     -73.82070000
C      -45.38540000     -35.61500000     -71.46290000
C      -44.99270000     -36.94180000     -71.53890000
S      -45.10930000     -35.34050000     -75.43900000
S      -44.78510000     -37.62830000     -73.19830000
H      -44.81970000     -37.61990000     -70.66450000
