40
Properties=species:S:1:pos:R:3 #=T CELL(abcABC):=T 1.889726e+02=T 90.00000=T Traj:=T positionsangstrom=T Step:=T 0=T Bead:=T pbc="F F F"
C      -43.75290000     -30.94780000     -67.51790000
C      -44.72120000     -31.82640000     -68.01580000
C      -45.65130000     -31.30280000     -68.97890000
C      -45.40450000     -30.14100000     -69.71120000
C      -44.35350000     -29.31930000     -69.30280000
C      -43.60820000     -29.72390000     -68.13240000
H      -43.05980000     -31.16670000     -66.66640000
H      -46.50010000     -31.94930000     -69.18920000
H      -44.12260000     -28.39710000     -69.78040000
H      -43.04290000     -28.96460000     -67.64620000
C      -46.25900000     -29.62780000     -70.85390000
H      -46.51610000     -28.55130000     -70.76000000
H      -47.15820000     -30.20320000     -70.78870000
C      -44.95500000     -33.22080000     -67.53780000
H      -44.79920000     -33.27530000     -66.47700000
H      -45.95860000     -33.63790000     -67.86730000
S      -45.68770000     -29.98820000     -72.57290000
S      -43.62180000     -34.35210000     -68.12630000
C      -45.39120000     -31.86010000     -72.37140000
H      -44.86160000     -32.22610000     -73.30200000
H      -44.79040000     -32.03640000     -71.47940000
C      -43.97310000     -34.48430000     -69.90070000
H      -43.03020000     -35.08110000     -70.22140000
H      -44.01750000     -33.47220000     -70.35020000
C      -45.21030000     -35.22620000     -70.33930000
H      -45.48010000     -36.01610000     -69.63780000
H      -46.17340000     -34.66880000     -70.17210000
C      -46.63060000     -32.71790000     -72.24920000
H      -47.52390000     -32.12010000     -72.59070000
H      -46.91890000     -32.98470000     -71.20940000
C      -46.57470000     -33.93580000     -73.16030000
C      -47.02840000     -33.78490000     -74.47480000
C      -45.94210000     -35.20070000     -72.84500000
H      -47.78780000     -33.08550000     -74.78820000
C      -45.95710000     -36.04200000     -73.94770000
C      -45.22820000     -35.78220000     -71.72720000
C      -44.80980000     -37.05430000     -72.03010000
S      -46.65270000     -35.35330000     -75.31620000
S      -45.27970000     -37.56230000     -73.63350000
H      -44.28830000     -37.72510000     -71.34690000
