40
Properties=species:S:1:pos:R:3 #=T CELL(abcABC):=T 1.889726e+02=T 90.00000=T Traj:=T positionsangstrom=T Step:=T 0=T Bead:=T pbc="F F F"
C      -43.64890000     -30.86110000     -67.75440000
C      -44.80760000     -31.64640000     -67.95250000
C      -45.74270000     -31.17720000     -68.95370000
C      -45.58540000     -29.92600000     -69.54710000
C      -44.38910000     -29.23660000     -69.34970000
C      -43.46010000     -29.62040000     -68.37500000
H      -42.85550000     -31.34270000     -67.09880000
H      -46.67510000     -31.77380000     -69.13760000
H      -44.32870000     -28.31170000     -69.85240000
H      -42.58190000     -29.07660000     -68.11130000
C      -46.51230000     -29.53340000     -70.68430000
H      -46.98540000     -28.51180000     -70.68790000
H      -47.27780000     -30.34350000     -70.68390000
C      -44.98620000     -33.14780000     -67.39750000
H      -44.80620000     -33.26030000     -66.36360000
H      -46.02470000     -33.47790000     -67.65660000
S      -45.58250000     -29.81280000     -72.42640000
S      -43.86380000     -34.44960000     -68.14350000
C      -45.31040000     -31.67300000     -72.48600000
H      -44.71560000     -31.78350000     -73.45530000
H      -44.59060000     -31.86990000     -71.68500000
C      -44.31930000     -34.66810000     -69.97280000
H      -43.43210000     -35.21950000     -70.33180000
H      -44.23110000     -33.68730000     -70.43490000
C      -45.64000000     -35.47720000     -70.26080000
H      -45.74330000     -36.35140000     -69.59070000
H      -46.59080000     -34.90830000     -69.99850000
C      -46.50400000     -32.67000000     -72.35230000
H      -47.42960000     -32.24310000     -72.57580000
H      -46.52380000     -32.85550000     -71.28640000
C      -46.35360000     -33.92510000     -73.17910000
C      -46.75280000     -33.82680000     -74.52300000
C      -45.91330000     -35.28980000     -72.87060000
H      -46.84280000     -32.89330000     -75.05240000
C      -45.79700000     -36.11440000     -73.97720000
C      -45.58830000     -36.03590000     -71.65350000
C      -45.05240000     -37.27700000     -71.90870000
S      -46.32850000     -35.31790000     -75.39560000
S      -45.11330000     -37.69720000     -73.61500000
H      -44.78110000     -38.06370000     -71.23740000
