40
Properties=species:S:1:pos:R:3 #=T CELL(abcABC):=T 1.889726e+02=T 90.00000=T Traj:=T positionsangstrom=T Step:=T 0=T Bead:=T pbc="F F F"
C      -47.15010000     -30.83530000     -69.71180000
C      -46.29000000     -31.46910000     -68.84550000
C      -44.89900000     -31.26120000     -68.98050000
C      -44.35230000     -30.35800000     -69.97510000
C      -45.28830000     -29.65520000     -70.71130000
C      -46.67260000     -29.87460000     -70.58730000
H      -48.15390000     -31.14110000     -69.66490000
H      -44.21570000     -31.82860000     -68.27330000
H      -44.92530000     -28.90870000     -71.42580000
H      -47.43480000     -29.49090000     -71.28740000
C      -42.81620000     -30.19650000     -70.11970000
H      -42.46490000     -29.52180000     -69.34870000
H      -42.45870000     -29.74230000     -71.02660000
C      -46.74590000     -32.44480000     -67.86660000
H      -45.89820000     -33.06910000     -67.50380000
H      -47.20410000     -31.94750000     -66.96430000
S      -41.93470000     -31.76530000     -69.94590000
S      -48.08670000     -33.56110000     -68.51250000
C      -42.47060000     -32.54880000     -71.48760000
H      -42.98290000     -31.84840000     -72.07130000
H      -41.62880000     -33.05870000     -72.03670000
C      -47.46680000     -33.91690000     -70.20270000
H      -46.98960000     -33.02720000     -70.59660000
H      -48.34350000     -34.02710000     -70.87830000
C      -46.57350000     -35.17290000     -70.31980000
H      -45.65920000     -35.12050000     -69.82880000
H      -47.15570000     -36.05740000     -69.87980000
C      -43.44600000     -33.76240000     -71.29280000
H      -44.34460000     -33.48670000     -70.61590000
H      -42.85360000     -34.46620000     -70.72560000
C      -43.98360000     -34.36610000     -72.60970000
C      -43.39540000     -34.25030000     -73.86040000
C      -45.25280000     -35.09640000     -72.70580000
H      -42.35220000     -33.90800000     -74.05330000
C      -45.43660000     -35.62330000     -73.98660000
C      -46.39910000     -35.54080000     -71.81100000
C      -47.32380000     -36.21720000     -72.53140000
S      -44.16030000     -35.25860000     -75.15470000
S      -46.96170000     -36.46470000     -74.22780000
H      -48.00530000     -36.80210000     -71.88280000
