40
Properties=species:S:1:pos:R:3 #=T CELL(abcABC):=T 1.889726e+02=T 90.00000=T Traj:=T positionsangstrom=T Step:=T 0=T Bead:=T pbc="F F F"
C      -47.00670000     -30.56420000     -69.33720000
C      -46.16650000     -31.45730000     -68.63580000
C      -44.76510000     -31.33270000     -68.85760000
C      -44.26650000     -30.46480000     -69.79520000
C      -45.14320000     -29.47030000     -70.35140000
C      -46.48670000     -29.52920000     -70.12890000
H      -48.03770000     -30.61700000     -69.25760000
H      -44.15700000     -32.24270000     -68.63760000
H      -44.88320000     -28.60310000     -70.91430000
H      -47.12020000     -28.75230000     -70.63420000
C      -42.77160000     -30.32350000     -70.05510000
H      -42.18010000     -29.87550000     -69.30170000
H      -42.76310000     -29.65060000     -70.96200000
C      -46.79910000     -32.55020000     -67.73390000
H      -45.96690000     -33.17540000     -67.40290000
H      -47.33060000     -32.21210000     -66.92880000
S      -41.68830000     -31.94220000     -70.27920000
S      -48.10050000     -33.55830000     -68.58670000
C      -42.42420000     -32.73020000     -71.75490000
H      -42.56550000     -32.01400000     -72.55560000
H      -41.80100000     -33.50660000     -72.15130000
C      -47.66530000     -33.78820000     -70.37050000
H      -47.15120000     -32.93520000     -70.79200000
H      -48.53780000     -33.98740000     -71.00300000
C      -46.73960000     -35.02580000     -70.43370000
H      -45.72600000     -34.85050000     -69.91430000
H      -47.05180000     -35.84180000     -69.77860000
C      -43.88550000     -33.26300000     -71.54050000
H      -44.64970000     -32.47400000     -71.26670000
H      -43.92280000     -33.81910000     -70.61200000
C      -44.35860000     -34.06920000     -72.74240000
C      -43.63960000     -34.02530000     -73.94880000
C      -45.46120000     -35.05060000     -72.81250000
H      -42.89930000     -33.33010000     -74.07840000
C      -45.53580000     -35.70890000     -74.06790000
C      -46.49180000     -35.50240000     -71.87060000
C      -47.23220000     -36.45350000     -72.44570000
S      -44.23070000     -35.20250000     -75.15110000
S      -46.74360000     -36.90910000     -74.09600000
H      -47.98060000     -36.93260000     -71.82820000
