40
Properties=species:S:1:pos:R:3 #=T CELL(abcABC):=T 1.889726e+02=T 90.00000=T Traj:=T positionsangstrom=T Step:=T 0=T Bead:=T pbc="F F F"
C      -47.15760000     -30.72080000     -69.66600000
C      -46.30780000     -31.33680000     -68.71530000
C      -44.91610000     -31.14290000     -68.83730000
C      -44.36230000     -30.38570000     -69.91500000
C      -45.23110000     -29.87820000     -70.83130000
C      -46.59410000     -30.06220000     -70.73970000
H      -48.20760000     -30.75750000     -69.61320000
H      -44.16140000     -31.62640000     -68.08970000
H      -44.67270000     -29.32470000     -71.55340000
H      -47.28940000     -29.53010000     -71.46270000
C      -42.85890000     -30.11270000     -69.88220000
H      -42.57390000     -29.64890000     -68.93010000
H      -42.57270000     -29.50350000     -70.75430000
C      -46.77100000     -32.44600000     -67.75240000
H      -45.85560000     -33.03290000     -67.42510000
H      -47.23140000     -32.14800000     -66.83280000
S      -42.08010000     -31.80530000     -69.87150000
S      -48.00180000     -33.58360000     -68.62410000
C      -42.49510000     -32.66270000     -71.48770000
H      -42.76830000     -31.82330000     -72.22960000
H      -41.59770000     -33.11390000     -71.85350000
C      -47.55780000     -33.87320000     -70.38130000
H      -47.11840000     -32.94500000     -70.69520000
H      -48.46090000     -34.02890000     -70.98110000
C      -46.47990000     -34.99350000     -70.47260000
H      -45.56610000     -34.57070000     -70.07380000
H      -46.86620000     -35.79580000     -69.85640000
C      -43.66260000     -33.60780000     -71.27780000
H      -44.51800000     -33.02460000     -71.02010000
H      -43.50360000     -34.27700000     -70.44160000
C      -44.05140000     -34.38480000     -72.54320000
C      -43.23940000     -34.41690000     -73.72380000
C      -45.28240000     -35.04450000     -72.79510000
H      -42.33370000     -33.96210000     -74.01540000
C      -45.43530000     -35.64180000     -74.06060000
C      -46.39360000     -35.39110000     -71.90640000
C      -47.30370000     -36.20150000     -72.53270000
S      -44.09510000     -35.20130000     -75.14870000
S      -46.89830000     -36.62510000     -74.23170000
H      -48.29790000     -36.49390000     -72.13070000
