40
Properties=species:S:1:pos:R:3 #=T CELL(abcABC):=T 1.889726e+02=T 90.00000=T Traj:=T positionsangstrom=T Step:=T 0=T Bead:=T pbc="F F F"
C      -47.19100000     -30.73860000     -69.71550000
C      -46.39460000     -31.39210000     -68.71950000
C      -44.98830000     -31.24360000     -68.87810000
C      -44.37110000     -30.45650000     -69.82600000
C      -45.23010000     -29.70920000     -70.64360000
C      -46.60370000     -29.91820000     -70.64970000
H      -48.28590000     -30.96360000     -69.81640000
H      -44.21250000     -31.76630000     -68.18770000
H      -44.80280000     -28.96360000     -71.35820000
H      -47.25230000     -29.41860000     -71.45550000
C      -42.86950000     -30.36740000     -69.96470000
H      -42.44680000     -29.74550000     -69.16200000
H      -42.62340000     -29.84550000     -70.91640000
C      -46.98840000     -32.37970000     -67.72640000
H      -46.21950000     -33.05960000     -67.35550000
H      -47.56900000     -31.96140000     -66.89810000
S      -41.91810000     -31.90930000     -69.94540000
S      -48.25190000     -33.61390000     -68.48400000
C      -42.44460000     -32.65630000     -71.48450000
H      -42.29270000     -31.89970000     -72.35410000
H      -41.64410000     -33.33040000     -71.74160000
C      -47.58050000     -33.94530000     -70.22650000
H      -47.26670000     -32.89000000     -70.49810000
H      -48.43340000     -34.20940000     -70.87500000
C      -46.62960000     -35.11300000     -70.43710000
H      -45.68400000     -35.07780000     -69.79000000
H      -47.10010000     -36.03810000     -70.12380000
C      -43.78580000     -33.35070000     -71.43030000
H      -44.58060000     -32.61310000     -71.17780000
H      -43.70810000     -34.09960000     -70.55870000
C      -44.13990000     -34.14750000     -72.63210000
C      -43.38830000     -34.08480000     -73.81820000
C      -45.22270000     -35.06040000     -72.76290000
H      -42.47340000     -33.53200000     -73.96370000
C      -45.29460000     -35.66610000     -74.02200000
C      -46.36840000     -35.38280000     -71.92370000
C      -47.20560000     -36.26800000     -72.64130000
S      -43.91280000     -35.27150000     -75.11580000
S      -46.73180000     -36.56510000     -74.31540000
H      -48.18830000     -36.62930000     -72.43620000
