40
Properties=species:S:1:pos:R:3 #=T CELL(abcABC):=T 1.889726e+02=T 90.00000=T Traj:=T positionsangstrom=T Step:=T 0=T Bead:=T pbc="F F F"
C      -42.04580000     -34.70640000     -70.12000000
C      -41.98500000     -33.38010000     -70.75150000
C      -42.57510000     -32.28220000     -70.13060000
C      -43.22800000     -32.47970000     -68.90240000
C      -43.26590000     -33.72230000     -68.32890000
C      -42.61160000     -34.84740000     -68.89860000
H      -41.63540000     -35.54470000     -70.67810000
H      -42.51590000     -31.31890000     -70.61920000
H      -43.86900000     -33.91600000     -67.45810000
H      -42.67360000     -35.85040000     -68.49780000
C      -43.99490000     -31.35800000     -68.13900000
H      -44.16560000     -30.53110000     -68.91140000
H      -43.40890000     -31.08480000     -67.23050000
C      -41.29460000     -33.24630000     -72.08020000
H      -41.46140000     -32.24780000     -72.44410000
H      -40.23510000     -33.38710000     -72.01300000
S      -45.59990000     -31.90360000     -67.36300000
S      -41.72280000     -34.47000000     -73.39990000
C      -46.69130000     -32.10130000     -68.89040000
H      -47.65240000     -32.17790000     -68.41620000
H      -46.70890000     -31.13680000     -69.37910000
C      -43.51630000     -34.17310000     -73.92090000
H      -43.74220000     -35.13160000     -74.44300000
H      -43.55550000     -33.32620000     -74.66180000
C      -44.61110000     -33.99190000     -72.77790000
H      -44.55790000     -34.89030000     -72.12780000
H      -44.46580000     -33.09420000     -72.11950000
C      -46.39800000     -33.32840000     -69.80770000
H      -46.62090000     -34.16250000     -69.20910000
H      -45.30230000     -33.49450000     -69.89030000
C      -47.40030000     -33.43040000     -70.92670000
C      -48.76250000     -33.17650000     -70.65050000
C      -47.17370000     -33.55640000     -72.35430000
H      -49.23900000     -32.92080000     -69.71130000
C      -48.32310000     -33.45490000     -73.12120000
C      -46.02300000     -33.82010000     -73.22370000
C      -46.43620000     -34.03640000     -74.53260000
S      -49.71050000     -33.28920000     -72.16760000
S      -48.20030000     -33.86210000     -74.76320000
H      -45.84800000     -34.06790000     -75.50840000
