40
Properties=species:S:1:pos:R:3 #=T CELL(abcABC):=T 1.889726e+02=T 90.00000=T Traj:=T positionsangstrom=T Step:=T 0=T Bead:=T pbc="F F F"
C      -46.82220000     -30.61770000     -68.99000000
C      -46.10880000     -31.74560000     -68.57620000
C      -44.73450000     -31.76630000     -68.57680000
C      -44.03580000     -30.63300000     -69.09680000
C      -44.72560000     -29.51640000     -69.38200000
C      -46.17110000     -29.44290000     -69.35470000
H      -47.90560000     -30.71830000     -68.84800000
H      -44.20000000     -32.62440000     -68.38970000
H      -44.16120000     -28.66970000     -69.72460000
H      -46.69650000     -28.58940000     -69.67980000
C      -42.51460000     -30.76450000     -69.31940000
H      -42.07190000     -31.18730000     -68.50020000
H      -41.96300000     -29.80430000     -69.30890000
C      -46.88330000     -32.83940000     -67.95340000
H      -46.30340000     -33.67970000     -67.80610000
H      -47.44690000     -32.52600000     -67.06170000
S      -41.99660000     -31.58930000     -70.88450000
S      -48.22610000     -33.42850000     -69.03990000
C      -43.58970000     -31.79760000     -71.85030000
H      -44.24930000     -30.96120000     -71.53940000
H      -43.36210000     -31.59870000     -72.90820000
C      -47.37060000     -34.03370000     -70.53870000
H      -46.89570000     -33.19470000     -71.03140000
H      -48.25090000     -34.18690000     -71.20680000
C      -46.44630000     -35.23300000     -70.47280000
H      -45.60820000     -35.07170000     -69.82960000
H      -46.90210000     -36.08630000     -69.91970000
C      -44.15260000     -33.15720000     -71.57390000
H      -44.92500000     -33.04820000     -70.80930000
H      -43.37210000     -33.83900000     -71.20140000
C      -44.62620000     -33.77260000     -72.89730000
C      -44.05410000     -33.63790000     -74.16120000
C      -45.43780000     -34.94040000     -72.89430000
H      -43.40400000     -32.81590000     -74.55890000
C      -45.52470000     -35.69210000     -74.11280000
C      -46.12170000     -35.73960000     -71.87290000
C      -46.76680000     -36.88180000     -72.33670000
S      -44.43520000     -35.00280000     -75.29370000
S      -46.37730000     -37.21150000     -74.11300000
H      -47.31850000     -37.55620000     -71.76390000
