40
Properties=species:S:1:pos:R:3 #=T CELL(abcABC):=T 1.889726e+02=T 90.00000=T Traj:=T positionsangstrom=T Step:=T 0=T Bead:=T pbc="F F F"
C      -46.60330000     -30.59800000     -69.04430000
C      -46.21820000     -31.78090000     -68.40490000
C      -44.84120000     -32.17000000     -68.53790000
C      -43.96650000     -31.26900000     -69.08050000
C      -44.33040000     -29.96190000     -69.52380000
C      -45.68870000     -29.68860000     -69.63340000
H      -47.62610000     -30.36790000     -69.10880000
H      -44.60750000     -33.19640000     -68.17300000
H      -43.43570000     -29.33200000     -69.81490000
H      -46.05430000     -28.79810000     -70.07080000
C      -42.53670000     -31.73440000     -69.26370000
H      -42.59560000     -32.84730000     -69.08080000
H      -41.91670000     -31.25810000     -68.51830000
C      -47.21840000     -32.59180000     -67.64530000
H      -46.81150000     -33.37990000     -66.93080000
H      -47.90170000     -32.05130000     -67.01100000
S      -41.77090000     -31.46270000     -70.88730000
S      -48.38270000     -33.61950000     -68.88880000
C      -43.10980000     -31.71470000     -72.18580000
H      -43.69390000     -30.85410000     -72.27950000
H      -42.57990000     -31.92850000     -73.12210000
C      -47.35070000     -33.58840000     -70.36520000
H      -46.90320000     -32.60860000     -70.46440000
H      -48.09080000     -33.70860000     -71.21580000
C      -46.34150000     -34.79040000     -70.48720000
H      -45.31690000     -34.51810000     -70.05470000
H      -46.77800000     -35.48140000     -69.80660000
C      -44.09690000     -32.88820000     -71.87920000
H      -44.97090000     -32.43460000     -71.39560000
H      -43.68120000     -33.63590000     -71.14850000
C      -44.47670000     -33.74060000     -73.07510000
C      -43.97290000     -33.79700000     -74.36790000
C      -45.36910000     -34.91920000     -72.88120000
H      -43.34310000     -33.07690000     -74.84910000
C      -45.54480000     -35.65900000     -74.04210000
C      -46.21150000     -35.37790000     -71.84840000
C      -47.02270000     -36.45660000     -72.24850000
S      -44.59220000     -35.06830000     -75.38190000
S      -46.76700000     -36.87900000     -73.94960000
H      -47.67290000     -36.99350000     -71.55230000
