40
Properties=species:S:1:pos:R:3 #=T CELL(abcABC):=T 1.889726e+02=T 90.00000=T Traj:=T positionsangstrom=T Step:=T 0=T Bead:=T pbc="F F F"
C      -41.46300000     -34.30110000     -69.86580000
C      -41.77760000     -33.32820000     -70.79340000
C      -42.35330000     -32.08080000     -70.29760000
C      -42.74470000     -31.93960000     -68.95480000
C      -42.51530000     -32.99420000     -68.06160000
C      -41.84520000     -34.13720000     -68.53100000
H      -40.98400000     -35.23610000     -70.14140000
H      -42.56960000     -31.40430000     -71.12780000
H      -42.87190000     -33.02380000     -67.06100000
H      -41.59550000     -34.95710000     -67.80740000
C      -43.59390000     -30.78030000     -68.51720000
H      -43.54090000     -29.96370000     -69.32480000
H      -43.26810000     -30.32360000     -67.62510000
C      -41.25910000     -33.42580000     -72.26730000
H      -41.35020000     -32.55960000     -72.83070000
H      -40.21370000     -33.71340000     -72.27160000
S      -45.34730000     -31.28630000     -68.24470000
S      -42.22130000     -34.74140000     -73.12720000
C      -45.97280000     -31.92310000     -69.89240000
H      -46.79850000     -31.38190000     -70.36980000
H      -45.12120000     -31.91270000     -70.57940000
C      -43.80120000     -33.93020000     -73.65880000
H      -44.10230000     -34.51750000     -74.58140000
H      -43.57770000     -32.84300000     -73.80750000
C      -44.91010000     -34.08660000     -72.59220000
H      -44.78760000     -34.93570000     -71.79490000
H      -44.85250000     -33.23320000     -71.94720000
C      -46.48160000     -33.37710000     -69.77910000
H      -46.81170000     -33.53930000     -68.78490000
H      -45.63480000     -34.02150000     -69.97770000
C      -47.59490000     -33.63330000     -70.74550000
C      -48.99950000     -33.56590000     -70.45710000
C      -47.45640000     -33.88870000     -72.18470000
H      -49.38430000     -33.40930000     -69.51260000
C      -48.68560000     -33.88150000     -72.91760000
C      -46.36060000     -34.16160000     -73.09910000
C      -46.70790000     -34.46930000     -74.38440000
S      -50.01480000     -33.71900000     -71.85520000
S      -48.46040000     -34.30830000     -74.63120000
H      -46.02670000     -34.59210000     -75.17860000
