40
Properties=species:S:1:pos:R:3 #=T CELL(abcABC):=T 1.889726e+02=T 90.00000=T Traj:=T positionsangstrom=T Step:=T 0=T Bead:=T pbc="F F F"
C      -42.03130000     -34.24940000     -69.82110000
C      -42.00150000     -33.39780000     -70.96690000
C      -42.51410000     -32.05660000     -70.81860000
C      -43.03930000     -31.67690000     -69.59200000
C      -43.10910000     -32.61880000     -68.49780000
C      -42.49740000     -33.85030000     -68.56490000
H      -41.63480000     -35.20240000     -69.96250000
H      -42.66100000     -31.55020000     -71.77900000
H      -43.49580000     -32.23460000     -67.51510000
H      -42.43610000     -34.47880000     -67.70850000
C      -43.56050000     -30.23910000     -69.35440000
H      -43.77570000     -29.69580000     -70.29290000
H      -42.99410000     -29.64060000     -68.64040000
C      -41.64670000     -33.84970000     -72.38160000
H      -42.09920000     -33.15780000     -73.16570000
H      -40.50130000     -33.85020000     -72.54790000
S      -45.22650000     -30.32390000     -68.58120000
S      -42.07580000     -35.54800000     -72.86980000
C      -46.13360000     -31.09660000     -69.96790000
H      -47.18670000     -30.65510000     -70.04070000
H      -45.55910000     -30.80840000     -70.87730000
C      -43.82620000     -35.47500000     -73.33860000
H      -44.19220000     -36.46870000     -73.23370000
H      -43.76550000     -35.20700000     -74.36380000
C      -44.66940000     -34.58590000     -72.39390000
H      -44.58970000     -34.96730000     -71.40860000
H      -44.23210000     -33.58930000     -72.32810000
C      -46.21630000     -32.65730000     -69.96480000
H      -46.50780000     -33.03170000     -68.95340000
H      -45.28590000     -33.15550000     -70.15290000
C      -47.35500000     -33.18920000     -70.73590000
C      -48.65810000     -32.86750000     -70.47910000
C      -47.26630000     -33.98230000     -72.02270000
H      -49.04740000     -32.22830000     -69.61590000
C      -48.50740000     -34.15630000     -72.57750000
C      -46.15540000     -34.52100000     -72.84960000
C      -46.57550000     -35.04350000     -74.03960000
S      -49.86500000     -33.47340000     -71.64040000
S      -48.33490000     -34.86160000     -74.16800000
H      -45.97540000     -35.47570000     -74.90100000
