40
Properties=species:S:1:pos:R:3 #=T CELL(abcABC):=T 1.889726e+02=T 90.00000=T Traj:=T positionsangstrom=T Step:=T 0=T Bead:=T pbc="F F F"
C      -41.11100000     -34.13240000     -69.71840000
C      -41.63040000     -33.45610000     -70.86620000
C      -42.43690000     -32.37850000     -70.62210000
C      -42.90560000     -31.97490000     -69.35590000
C      -42.47640000     -32.74910000     -68.23980000
C      -41.51930000     -33.72050000     -68.47760000
H      -40.48400000     -35.02290000     -69.80660000
H      -42.79700000     -31.67590000     -71.36520000
H      -42.92530000     -32.61250000     -67.25770000
H      -41.10210000     -34.24870000     -67.55530000
C      -43.74530000     -30.69630000     -69.27690000
H      -43.83940000     -30.35540000     -70.34330000
H      -43.20030000     -29.99260000     -68.70870000
C      -41.29470000     -33.75390000     -72.30410000
H      -41.54080000     -32.76260000     -72.80660000
H      -40.23820000     -34.09820000     -72.39340000
S      -45.35950000     -30.86700000     -68.46250000
S      -42.29610000     -35.18590000     -73.02130000
C      -46.52580000     -31.57000000     -69.65070000
H      -47.49800000     -31.08210000     -69.40740000
H      -46.30480000     -31.21700000     -70.65920000
C      -43.82200000     -34.33690000     -73.51790000
H      -44.24510000     -34.93790000     -74.37050000
H      -43.63350000     -33.37780000     -73.92610000
C      -44.83340000     -34.29480000     -72.37560000
H      -44.91280000     -35.15750000     -71.74640000
H      -44.70680000     -33.58470000     -71.61790000
C      -46.62420000     -33.08680000     -69.62980000
H      -46.99250000     -33.54850000     -68.67650000
H      -45.69970000     -33.59140000     -69.97890000
C      -47.67100000     -33.47480000     -70.73900000
C      -49.03320000     -33.34570000     -70.49780000
C      -47.43210000     -33.83120000     -72.10420000
H      -49.34130000     -33.05720000     -69.55030000
C      -48.61320000     -33.97500000     -72.81700000
C      -46.26120000     -34.22990000     -72.86830000
C      -46.55190000     -34.66370000     -74.11770000
S      -50.00190000     -33.53810000     -71.90570000
S      -48.33730000     -34.55210000     -74.39230000
H      -46.00210000     -35.22930000     -74.85500000
