40
Properties=species:S:1:pos:R:3 #=T CELL(abcABC):=T 1.889726e+02=T 90.00000=T Traj:=T positionsangstrom=T Step:=T 0=T Bead:=T pbc="F F F"
C      -42.27790000     -34.28290000     -69.94660000
C      -42.16170000     -33.33100000     -70.98030000
C      -42.43640000     -31.98110000     -70.69040000
C      -42.89130000     -31.63580000     -69.40510000
C      -43.00030000     -32.54590000     -68.39020000
C      -42.66790000     -33.87170000     -68.68230000
H      -41.93190000     -35.28850000     -70.21500000
H      -42.09580000     -31.25120000     -71.39640000
H      -43.47860000     -32.36100000     -67.44330000
H      -42.81710000     -34.61350000     -67.94930000
C      -43.35470000     -30.23950000     -69.19220000
H      -43.22360000     -29.59090000     -69.99460000
H      -42.79260000     -29.71380000     -68.37060000
C      -41.60230000     -33.75220000     -72.31400000
H      -41.85150000     -32.99980000     -73.09790000
H      -40.55730000     -33.73660000     -72.27370000
S      -45.21330000     -30.16400000     -68.79940000
S      -42.07990000     -35.54410000     -72.77630000
C      -46.08500000     -31.19860000     -70.16470000
H      -47.03980000     -30.78180000     -70.23970000
H      -45.45140000     -30.93920000     -71.06810000
C      -43.84960000     -35.47140000     -73.24410000
H      -44.26230000     -36.48460000     -73.16840000
H      -43.84810000     -35.08170000     -74.30950000
C      -44.70880000     -34.54730000     -72.41590000
H      -44.62700000     -34.97560000     -71.40840000
H      -44.24950000     -33.49260000     -72.40470000
C      -46.15160000     -32.73070000     -69.94880000
H      -46.29110000     -32.88400000     -68.85010000
H      -45.14840000     -33.12080000     -70.08530000
C      -47.29830000     -33.20170000     -70.82250000
C      -48.61620000     -32.94260000     -70.49620000
C      -47.20710000     -33.89890000     -72.06420000
H      -49.05380000     -32.48550000     -69.55640000
C      -48.43950000     -34.07940000     -72.60100000
C      -46.21490000     -34.53950000     -72.86800000
C      -46.72150000     -35.25740000     -73.94650000
S      -49.82590000     -33.46570000     -71.67980000
S      -48.44280000     -35.02650000     -74.10570000
H      -46.24910000     -35.87590000     -74.72760000
