40
Properties=species:S:1:pos:R:3 #=T CELL(abcABC):=T 1.889726e+02=T 90.00000=T Traj:=T positionsangstrom=T Step:=T 0=T Bead:=T pbc="F F F"
C      -45.54240000     -34.62050000     -75.34560000
C      -45.33870000     -33.47020000     -74.59690000
C      -46.38490000     -32.93600000     -73.82860000
C      -47.57870000     -33.68120000     -73.78100000
C      -47.73660000     -34.85680000     -74.54630000
C      -46.71840000     -35.32800000     -75.37550000
H      -44.64400000     -34.97430000     -76.01410000
H      -46.36070000     -31.93510000     -73.41850000
H      -48.75770000     -35.34730000     -74.42720000
H      -46.84280000     -36.21450000     -75.96290000
C      -48.73810000     -33.25330000     -72.87060000
H      -49.65750000     -33.92060000     -73.00170000
H      -49.02030000     -32.20940000     -72.92130000
C      -44.08360000     -32.65540000     -74.82870000
H      -43.92910000     -32.57530000     -75.94160000
H      -44.16860000     -31.66530000     -74.37320000
S      -48.21020000     -33.33400000     -71.06330000
S      -42.52770000     -33.33560000     -74.18470000
C      -47.71390000     -35.08320000     -70.76040000
H      -48.28190000     -35.45990000     -69.85970000
H      -47.89820000     -35.70520000     -71.65330000
C      -42.40390000     -32.80330000     -72.45960000
H      -42.35980000     -31.75810000     -72.24270000
H      -41.44380000     -33.27740000     -72.13480000
C      -43.54240000     -33.45490000     -71.63330000
H      -44.53100000     -33.06640000     -72.03260000
H      -43.45730000     -34.54130000     -71.90080000
C      -46.17180000     -34.99330000     -70.43280000
H      -45.66330000     -34.68370000     -71.35120000
H      -45.83340000     -36.03480000     -70.22390000
C      -45.86080000     -34.06070000     -69.23280000
C      -46.62440000     -33.90190000     -68.14190000
C      -44.59190000     -33.36940000     -69.20870000
H      -47.61740000     -34.32360000     -67.94870000
C      -44.49390000     -32.56470000     -68.10370000
C      -43.49010000     -33.14410000     -70.09520000
C      -42.49230000     -32.33240000     -69.53370000
S      -45.87170000     -32.73430000     -67.04820000
S      -42.92320000     -31.73130000     -67.93430000
H      -41.61250000     -32.06230000     -70.17150000
