40
Properties=species:S:1:pos:R:3 #=T CELL(abcABC):=T 1.889726e+02=T 90.00000=T Traj:=T positionsangstrom=T Step:=T 0=T Bead:=T pbc="F F F"
C      -41.23900000     -34.13450000     -69.79300000
C      -41.60150000     -33.34950000     -70.89930000
C      -42.52610000     -32.31980000     -70.78000000
C      -43.00590000     -31.90560000     -69.54440000
C      -42.53010000     -32.64950000     -68.41410000
C      -41.71660000     -33.78880000     -68.54600000
H      -40.61280000     -35.00260000     -69.89380000
H      -42.77140000     -31.63040000     -71.58820000
H      -42.70530000     -32.27220000     -67.46200000
H      -41.47330000     -34.34440000     -67.65180000
C      -43.78020000     -30.64780000     -69.37550000
H      -44.05120000     -30.14370000     -70.27740000
H      -43.10950000     -29.93650000     -68.80730000
C      -41.04780000     -33.84910000     -72.27130000
H      -40.87540000     -33.12160000     -73.01640000
H      -40.13680000     -34.31950000     -72.12650000
S      -45.37380000     -30.77660000     -68.41300000
S      -42.05710000     -35.25770000     -72.83280000
C      -46.56380000     -31.49400000     -69.71310000
H      -47.55740000     -31.09440000     -69.50580000
H      -46.31980000     -31.21370000     -70.74370000
C      -43.72000000     -34.60090000     -73.45350000
H      -43.98770000     -35.41100000     -74.22080000
H      -43.58090000     -33.65460000     -74.09060000
C      -44.85380000     -34.23140000     -72.42180000
H      -44.67720000     -34.93380000     -71.57290000
H      -44.51350000     -33.20400000     -72.01070000
C      -46.71310000     -33.02850000     -69.68960000
H      -47.07330000     -33.23420000     -68.70160000
H      -45.73420000     -33.48560000     -69.72180000
C      -47.66680000     -33.42670000     -70.73340000
C      -49.01520000     -33.14480000     -70.48750000
C      -47.40780000     -33.92660000     -72.02880000
H      -49.38020000     -32.86990000     -69.57630000
C      -48.64960000     -34.11140000     -72.73430000
C      -46.23840000     -34.28120000     -72.87660000
C      -46.63510000     -34.69890000     -74.11740000
S      -50.08330000     -33.55930000     -71.84930000
S      -48.35120000     -34.60360000     -74.39810000
H      -45.98290000     -34.93400000     -74.88580000
