40
Properties=species:S:1:pos:R:3 #=T CELL(abcABC):=T 1.889726e+02=T 90.00000=T Traj:=T positionsangstrom=T Step:=T 0=T Bead:=T pbc="F F F"
C      -42.01560000     -34.30840000     -69.23560000
C      -41.74630000     -33.95860000     -70.53850000
C      -42.03330000     -32.66570000     -71.07340000
C      -42.62160000     -31.63760000     -70.24400000
C      -42.81860000     -31.96420000     -68.89790000
C      -42.49190000     -33.26070000     -68.39870000
H      -41.95480000     -35.34200000     -68.93150000
H      -41.92140000     -32.52050000     -72.12180000
H      -43.36220000     -31.36040000     -68.13220000
H      -42.67560000     -33.47410000     -67.34530000
C      -42.94870000     -30.25210000     -70.91580000
H      -42.84160000     -30.25300000     -72.01900000
H      -42.22390000     -29.51680000     -70.52810000
C      -41.37480000     -35.03910000     -71.52560000
H      -40.66370000     -34.59070000     -72.24810000
H      -40.91200000     -35.82490000     -71.00910000
S      -44.54850000     -29.54430000     -70.43930000
S      -42.53950000     -36.01500000     -72.57900000
C      -45.86750000     -30.57470000     -71.18090000
H      -46.73020000     -29.89820000     -71.22740000
H      -45.59360000     -30.95280000     -72.14930000
C      -44.18280000     -35.10820000     -72.81950000
H      -44.70960000     -35.72100000     -73.50720000
H      -43.99770000     -34.14460000     -73.38880000
C      -45.05290000     -34.90720000     -71.60780000
H      -44.87340000     -35.74060000     -70.95660000
H      -44.67030000     -34.06120000     -71.07550000
C      -46.36110000     -31.74340000     -70.35380000
H      -46.76390000     -31.52350000     -69.32100000
H      -45.41360000     -32.37490000     -70.07650000
C      -47.44620000     -32.52660000     -71.09280000
C      -48.69890000     -31.91150000     -71.25230000
C      -47.46260000     -33.91090000     -71.62330000
H      -48.90580000     -30.89140000     -71.01950000
C      -48.68970000     -34.24350000     -72.11970000
C      -46.48570000     -34.93040000     -71.86790000
C      -47.02680000     -36.11840000     -72.41880000
S      -49.88420000     -32.95270000     -71.93960000
S      -48.73840000     -35.87710000     -72.73710000
H      -46.31970000     -36.79430000     -72.88300000
