40
Properties=species:S:1:pos:R:3 #=T CELL(abcABC):=T 1.889726e+02=T 90.00000=T Traj:=T positionsangstrom=T Step:=T 0=T Bead:=T pbc="F F F"
C      -45.27220000     -33.33220000     -68.95930000
C      -46.59540000     -33.01710000     -69.26110000
C      -47.32850000     -33.99850000     -69.90090000
C      -46.74960000     -35.25770000     -70.34680000
C      -45.43800000     -35.54090000     -70.02160000
C      -44.67770000     -34.56320000     -69.35810000
H      -44.58600000     -32.65220000     -68.54820000
H      -48.38360000     -33.98280000     -70.02950000
H      -45.06370000     -36.41740000     -70.36280000
H      -43.63240000     -34.72150000     -69.09280000
C      -47.59740000     -36.18880000     -71.07420000
H      -48.41290000     -36.46800000     -70.39520000
H      -47.16130000     -37.13140000     -71.44710000
C      -47.10790000     -31.73800000     -68.81300000
H      -48.08950000     -31.64990000     -69.30770000
H      -47.42070000     -31.63990000     -67.71420000
S      -48.36940000     -35.42840000     -72.63030000
S      -46.08140000     -30.19430000     -69.08840000
C      -46.92090000     -35.44990000     -73.79930000
H      -46.25800000     -36.23860000     -73.50630000
H      -47.16670000     -35.72020000     -74.80580000
C      -46.34960000     -30.02270000     -71.00210000
H      -45.69170000     -29.15370000     -71.04940000
H      -47.44800000     -29.80160000     -71.11480000
C      -45.97780000     -31.14260000     -71.93920000
H      -46.75600000     -31.93080000     -71.85080000
H      -46.06630000     -30.71120000     -72.90440000
C      -46.20430000     -34.08350000     -73.86360000
H      -46.91570000     -33.26960000     -73.36770000
H      -46.12450000     -33.89240000     -74.92750000
C      -44.80750000     -34.08750000     -73.27440000
C      -43.98770000     -35.18570000     -73.34370000
C      -44.21490000     -33.02810000     -72.46060000
H      -44.11770000     -36.07500000     -74.01320000
C      -42.86790000     -33.38890000     -72.09720000
C      -44.64190000     -31.78350000     -71.71510000
C      -43.58250000     -31.27690000     -71.03970000
S      -42.31820000     -34.83420000     -72.83810000
S      -42.11790000     -32.21100000     -71.01070000
H      -43.61750000     -30.33290000     -70.36600000
