40
Properties=species:S:1:pos:R:3 #=T CELL(abcABC):=T 1.889726e+02=T 90.00000=T Traj:=T positionsangstrom=T Step:=T 0=T Bead:=T pbc="F F F"
C      -45.94940000     -30.23230000     -68.64570000
C      -45.47640000     -31.51840000     -68.50030000
C      -44.12470000     -31.75850000     -68.88650000
C      -43.29530000     -30.81770000     -69.41980000
C      -43.75950000     -29.51800000     -69.58240000
C      -45.07320000     -29.19050000     -69.13230000
H      -46.98450000     -30.17010000     -68.40800000
H      -43.67980000     -32.72370000     -68.69030000
H      -43.10710000     -28.66090000     -69.92510000
H      -45.56030000     -28.22100000     -69.28690000
C      -41.90450000     -31.19600000     -69.79830000
H      -41.47250000     -31.93940000     -69.14260000
H      -41.27090000     -30.31390000     -69.79840000
C      -46.20600000     -32.77410000     -67.83200000
H      -45.64930000     -33.68210000     -67.86010000
H      -46.46980000     -32.62130000     -66.76300000
S      -41.92180000     -31.87650000     -71.50800000
S      -47.85920000     -32.91170000     -68.64160000
C      -42.77920000     -33.43450000     -71.37980000
H      -42.34130000     -34.24910000     -71.97750000
H      -42.71690000     -33.76010000     -70.37140000
C      -47.60850000     -33.47120000     -70.43780000
H      -47.01430000     -32.72090000     -71.11160000
H      -48.62890000     -33.54020000     -70.76550000
C      -47.00760000     -34.89950000     -70.47880000
H      -46.02550000     -34.97850000     -70.00800000
H      -47.69850000     -35.52890000     -69.87790000
C      -44.30120000     -33.32400000     -71.66270000
H      -44.73630000     -32.40700000     -71.91860000
H      -44.78430000     -33.63510000     -70.76890000
C      -44.72660000     -34.26990000     -72.85460000
C      -44.07240000     -34.38740000     -74.08490000
C      -45.94490000     -34.98490000     -72.86860000
H      -43.10020000     -33.96890000     -74.33960000
C      -46.11150000     -35.72430000     -74.05360000
C      -47.00490000     -35.38260000     -71.90540000
C      -48.01590000     -36.09520000     -72.48430000
S      -44.85570000     -35.40680000     -75.15260000
S      -47.57560000     -36.63900000     -74.04780000
H      -48.82050000     -36.56040000     -71.91090000
