40
Properties=species:S:1:pos:R:3 #=T CELL(abcABC):=T 1.889726e+02=T 90.00000=T Traj:=T positionsangstrom=T Step:=T 0=T Bead:=T pbc="F F F"
C      -42.39870000     -34.62970000     -69.77300000
C      -41.76470000     -33.77100000     -70.72740000
C      -41.86320000     -32.37160000     -70.66200000
C      -42.66810000     -31.80910000     -69.69400000
C      -43.15760000     -32.63650000     -68.67470000
C      -43.06120000     -34.04650000     -68.71770000
H      -42.42580000     -35.68810000     -69.95800000
H      -41.37370000     -31.82430000     -71.45010000
H      -43.65770000     -32.08660000     -67.85640000
H      -43.61720000     -34.60770000     -67.95770000
C      -42.93500000     -30.29930000     -69.75050000
H      -42.35330000     -29.74000000     -70.52600000
H      -42.62810000     -29.82550000     -68.81490000
C      -41.15160000     -34.44360000     -71.97330000
H      -40.76850000     -33.67320000     -72.62590000
H      -40.38160000     -35.13830000     -71.67890000
S      -44.70260000     -29.74840000     -69.93730000
S      -42.35930000     -35.46530000     -72.89080000
C      -45.52070000     -31.07970000     -70.92740000
H      -46.12950000     -30.64280000     -71.69510000
H      -44.76440000     -31.72690000     -71.35000000
C      -43.91610000     -34.45330000     -72.85000000
H      -44.46420000     -34.56310000     -73.78550000
H      -43.65190000     -33.45190000     -72.81140000
C      -44.95360000     -34.72810000     -71.64390000
H      -44.64540000     -35.66770000     -71.10040000
H      -44.80080000     -34.03140000     -70.81080000
C      -46.55450000     -31.93610000     -70.07650000
H      -46.96220000     -31.33910000     -69.22140000
H      -45.89710000     -32.67430000     -69.55700000
C      -47.67050000     -32.65320000     -70.92660000
C      -48.93540000     -32.11670000     -71.05340000
C      -47.47920000     -33.80440000     -71.76310000
H      -49.38020000     -31.31170000     -70.51940000
C      -48.64800000     -34.25000000     -72.38300000
C      -46.39930000     -34.80320000     -71.99150000
C      -46.78820000     -35.85140000     -72.79290000
S      -49.97610000     -33.18930000     -72.00950000
S      -48.48560000     -35.76400000     -73.24740000
H      -46.13460000     -36.64670000     -73.17220000
