40
Properties=species:S:1:pos:R:3 #=T CELL(abcABC):=T 1.889726e+02=T 90.00000=T Traj:=T positionsangstrom=T Step:=T 0=T Bead:=T pbc="F F F"
C      -42.25880000     -34.55440000     -69.65690000
C      -41.96060000     -33.73340000     -70.80730000
C      -42.21280000     -32.34340000     -70.73940000
C      -42.73170000     -31.78810000     -69.60380000
C      -43.11700000     -32.62250000     -68.47450000
C      -42.87390000     -33.99290000     -68.55640000
H      -41.97880000     -35.61310000     -69.69190000
H      -42.00060000     -31.69570000     -71.59870000
H      -43.65440000     -32.09820000     -67.64020000
H      -43.14440000     -34.60420000     -67.73470000
C      -43.07220000     -30.38800000     -69.42520000
H      -42.41090000     -29.80280000     -70.03260000
H      -42.87670000     -30.07960000     -68.37630000
C      -41.32220000     -34.22300000     -72.04820000
H      -41.15860000     -33.40690000     -72.76630000
H      -40.36420000     -34.72740000     -71.91500000
S      -44.83000000     -29.92780000     -69.70990000
S      -42.40850000     -35.42600000     -72.98220000
C      -45.43750000     -31.13520000     -70.99690000
H      -45.95860000     -30.62540000     -71.81390000
H      -44.64390000     -31.73410000     -71.53040000
C      -43.95720000     -34.42450000     -72.99220000
H      -44.40210000     -34.66050000     -74.01430000
H      -43.66480000     -33.35660000     -73.00340000
C      -44.94750000     -34.76770000     -71.75600000
H      -44.72000000     -35.70550000     -71.28760000
H      -44.81710000     -33.97390000     -71.01930000
C      -46.38950000     -32.03850000     -70.09280000
H      -46.92070000     -31.32050000     -69.37800000
H      -45.88980000     -32.78160000     -69.51120000
C      -47.49280000     -32.71630000     -70.94780000
C      -48.78810000     -32.20460000     -70.94610000
C      -47.38920000     -33.86000000     -71.78690000
H      -49.05720000     -31.39650000     -70.31300000
C      -48.58170000     -34.21610000     -72.41140000
C      -46.30760000     -34.77680000     -72.21500000
C      -46.77110000     -35.72810000     -73.11200000
S      -49.87070000     -33.21220000     -71.89490000
S      -48.51540000     -35.68040000     -73.42210000
H      -46.19230000     -36.55620000     -73.43850000
