40
Properties=species:S:1:pos:R:3 #=T CELL(abcABC):=T 1.889726e+02=T 90.00000=T Traj:=T positionsangstrom=T Step:=T 0=T Bead:=T pbc="F F F"
C      -45.97940000     -29.98930000     -68.93200000
C      -45.75790000     -31.32350000     -68.66000000
C      -44.44460000     -31.80820000     -68.85790000
C      -43.35120000     -30.95280000     -69.24450000
C      -43.68510000     -29.61780000     -69.65440000
C      -45.00010000     -29.18330000     -69.50880000
H      -47.00400000     -29.60160000     -68.84760000
H      -44.10120000     -32.86810000     -68.57770000
H      -42.87630000     -29.01080000     -70.10680000
H      -45.24370000     -28.17870000     -69.87530000
C      -42.03430000     -31.62070000     -69.44120000
H      -42.03840000     -32.49920000     -68.83960000
H      -41.15020000     -30.99600000     -69.20990000
C      -46.75690000     -32.15600000     -67.90070000
H      -46.28730000     -32.96410000     -67.32930000
H      -47.21730000     -31.61100000     -67.08760000
S      -41.92120000     -32.03200000     -71.29910000
S      -48.24660000     -32.77380000     -68.96430000
C      -43.13380000     -33.35040000     -71.62440000
H      -42.65960000     -34.11750000     -72.27520000
H      -43.44350000     -33.80450000     -70.65350000
C      -47.63270000     -33.68370000     -70.38740000
H      -47.58120000     -33.08130000     -71.28840000
H      -48.50110000     -34.36170000     -70.52020000
C      -46.32890000     -34.46440000     -70.32090000
H      -45.45790000     -33.73670000     -70.26310000
H      -46.20590000     -35.10770000     -69.42080000
C      -44.28410000     -32.79700000     -72.49640000
H      -43.90780000     -31.93060000     -73.08160000
H      -45.04280000     -32.42370000     -71.85610000
C      -44.90570000     -33.83460000     -73.38040000
C      -44.72270000     -33.93190000     -74.72410000
C      -45.75410000     -34.92600000     -72.86330000
H      -44.17840000     -33.27210000     -75.35840000
C      -45.98330000     -35.89270000     -73.85860000
C      -46.26470000     -35.29670000     -71.59650000
C      -46.87860000     -36.56470000     -71.60900000
S      -45.38590000     -35.43350000     -75.40000000
S      -46.82940000     -37.28400000     -73.21850000
H      -47.24970000     -37.08140000     -70.67610000
