40
Properties=species:S:1:pos:R:3 #=T CELL(abcABC):=T 1.889726e+02=T 90.00000=T Traj:=T positionsangstrom=T Step:=T 0=T Bead:=T pbc="F F F"
C      -43.04490000     -30.74110000     -74.76710000
C      -44.14310000     -30.94470000     -73.84350000
C      -43.78550000     -31.15490000     -72.49930000
C      -42.46800000     -31.08830000     -72.03570000
C      -41.44430000     -31.11180000     -72.99010000
C      -41.72960000     -30.89760000     -74.32520000
H      -43.32120000     -30.41700000     -75.78080000
H      -44.65650000     -31.18800000     -71.74690000
H      -40.44970000     -30.98520000     -72.53890000
H      -40.99750000     -30.67540000     -75.09970000
C      -41.96610000     -31.22780000     -70.59650000
H      -41.22700000     -30.41330000     -70.33920000
H      -41.35740000     -32.11760000     -70.61900000
C      -45.63110000     -30.98990000     -74.23330000
H      -45.76030000     -30.20880000     -74.95990000
H      -45.77920000     -32.00970000     -74.73360000
S      -43.15860000     -31.36790000     -69.22080000
S      -46.87930000     -30.91050000     -72.87670000
C      -43.69820000     -33.22160000     -69.10150000
H      -42.71230000     -33.78100000     -69.06150000
H      -44.28150000     -33.34890000     -68.16570000
C      -47.08100000     -32.71180000     -72.80940000
H      -46.13760000     -33.09800000     -73.02010000
H      -47.78800000     -33.00130000     -73.62900000
C      -47.69540000     -33.05840000     -71.44990000
H      -47.11610000     -32.54590000     -70.61310000
H      -48.69290000     -32.74700000     -71.47590000
C      -44.51550000     -33.65850000     -70.30740000
H      -43.89200000     -33.85230000     -71.21990000
H      -45.17810000     -32.94860000     -70.58150000
C      -45.32530000     -34.94140000     -69.92960000
C      -44.81870000     -36.02550000     -69.23930000
C      -46.66540000     -35.30240000     -70.41820000
H      -43.76180000     -36.19990000     -68.86850000
C      -47.02820000     -36.61240000     -70.09870000
C      -47.73170000     -34.62580000     -71.18830000
C      -48.76850000     -35.45540000     -71.45480000
S      -45.96430000     -37.34890000     -69.01570000
S      -48.61960000     -37.06630000     -70.77320000
H      -49.66130000     -35.19710000     -72.00250000
