40
Properties=species:S:1:pos:R:3 #=T CELL(abcABC):=T 1.889726e+02=T 90.00000=T Traj:=T positionsangstrom=T Step:=T 0=T Bead:=T pbc="F F F"
C      -43.06710000     -30.78220000     -74.79290000
C      -44.04600000     -31.04700000     -73.79010000
C      -43.58410000     -31.29050000     -72.47410000
C      -42.25290000     -31.14290000     -72.05670000
C      -41.32620000     -30.65330000     -72.99880000
C      -41.76950000     -30.49380000     -74.34910000
H      -43.37960000     -30.68590000     -75.81660000
H      -44.32580000     -31.59620000     -71.78040000
H      -40.26490000     -30.56460000     -72.78470000
H      -41.12290000     -30.27360000     -75.15540000
C      -41.82970000     -31.50610000     -70.68030000
H      -40.95860000     -30.94470000     -70.35900000
H      -41.54930000     -32.61350000     -70.62490000
C      -45.44590000     -30.99520000     -74.17710000
H      -45.58420000     -29.98250000     -74.60640000
H      -45.57010000     -31.63370000     -75.07580000
S      -43.21380000     -31.30820000     -69.45070000
S      -46.72350000     -31.14140000     -72.88590000
C      -43.74330000     -33.10760000     -69.16460000
H      -42.88140000     -33.73320000     -69.04600000
H      -44.22250000     -32.90710000     -68.14390000
C      -47.28490000     -32.89000000     -72.90550000
H      -46.48000000     -33.62670000     -73.00980000
H      -48.00790000     -33.09240000     -73.72860000
C      -47.97740000     -33.14090000     -71.55680000
H      -47.64790000     -32.45140000     -70.78590000
H      -49.06820000     -32.83960000     -71.66000000
C      -44.74610000     -33.61740000     -70.19320000
H      -44.32850000     -33.74050000     -71.15520000
H      -45.52370000     -32.81270000     -70.27080000
C      -45.43670000     -34.85100000     -69.87350000
C      -44.88060000     -35.85390000     -69.12800000
C      -46.78530000     -35.19440000     -70.35090000
H      -43.94720000     -35.76970000     -68.61550000
C      -47.05000000     -36.53950000     -70.00680000
C      -47.86750000     -34.59440000     -71.09050000
C      -48.86660000     -35.48950000     -71.29320000
S      -45.85220000     -37.34750000     -69.09660000
S      -48.61730000     -37.12270000     -70.60490000
H      -49.74620000     -35.17420000     -71.84380000
