40
Properties=species:S:1:pos:R:3 #=T CELL(abcABC):=T 1.889726e+02=T 90.00000=T Traj:=T positionsangstrom=T Step:=T 0=T Bead:=T pbc="F F F"
C      -41.69950000     -32.45590000     -69.76600000
C      -42.86260000     -31.65140000     -69.81220000
C      -43.20390000     -31.18110000     -71.08600000
C      -42.55200000     -31.45350000     -72.28000000
C      -41.32530000     -32.18360000     -72.14840000
C      -40.93310000     -32.65380000     -70.87030000
H      -41.41750000     -32.95690000     -68.82610000
H      -44.14170000     -30.67780000     -71.26820000
H      -40.76620000     -32.40680000     -73.07600000
H      -40.11000000     -33.28150000     -70.71740000
C      -43.07990000     -31.18330000     -73.68770000
H      -43.02770000     -32.20920000     -74.24760000
H      -42.55470000     -30.46960000     -74.28770000
C      -43.69120000     -31.27600000     -68.61670000
H      -43.09070000     -30.52650000     -68.05590000
H      -44.63230000     -30.73350000     -68.99620000
S      -44.83160000     -30.42460000     -73.89690000
S      -44.07690000     -32.72270000     -67.50450000
C      -46.04720000     -31.86340000     -74.10000000
H      -46.96590000     -31.39960000     -74.46520000
H      -45.76160000     -32.59530000     -74.85350000
C      -44.90780000     -34.00920000     -68.58220000
H      -45.21210000     -34.84910000     -67.88800000
H      -44.21180000     -34.37040000     -69.29620000
C      -46.21770000     -33.56970000     -69.35290000
H      -46.93870000     -33.13410000     -68.63190000
H      -45.95090000     -32.73250000     -70.05750000
C      -46.35930000     -32.45920000     -72.78960000
H      -47.14160000     -31.85360000     -72.18340000
H      -45.42420000     -32.46460000     -72.20420000
C      -46.99770000     -33.79190000     -72.73220000
C      -47.38560000     -34.40420000     -73.85260000
C      -47.28260000     -34.60860000     -71.50580000
H      -47.21600000     -34.19790000     -74.83000000
C      -47.89120000     -35.82270000     -71.85830000
C      -46.90050000     -34.65220000     -70.09530000
C      -47.32330000     -35.79560000     -69.46030000
S      -47.95960000     -36.03260000     -73.59640000
S      -48.11670000     -36.97840000     -70.52820000
H      -47.14570000     -36.04990000     -68.34640000
