40
Properties=species:S:1:pos:R:3 #=T CELL(abcABC):=T 1.889726e+02=T 90.00000=T Traj:=T positionsangstrom=T Step:=T 0=T Bead:=T pbc="F F F"
C      -46.00810000     -30.04300000     -68.87790000
C      -45.88590000     -31.39780000     -68.55620000
C      -44.60870000     -32.01670000     -68.67730000
C      -43.59750000     -31.41260000     -69.43900000
C      -43.76440000     -30.05020000     -69.81780000
C      -44.92640000     -29.31870000     -69.44700000
H      -46.91330000     -29.42480000     -68.75670000
H      -44.50640000     -33.00650000     -68.28430000
H      -42.98420000     -29.54620000     -70.39020000
H      -45.04760000     -28.26620000     -69.78050000
C      -42.24410000     -31.99830000     -69.72890000
H      -42.02570000     -33.04860000     -69.44740000
H      -41.51360000     -31.38540000     -69.18670000
C      -46.98110000     -32.19520000     -67.82490000
H      -46.51950000     -33.03780000     -67.28570000
H      -47.52690000     -31.48130000     -67.15270000
S      -41.82780000     -31.77460000     -71.54230000
S      -48.22820000     -32.72820000     -69.06450000
C      -42.85320000     -33.12730000     -72.18420000
H      -42.55580000     -33.34590000     -73.22440000
H      -42.77890000     -33.99450000     -71.54800000
C      -47.23100000     -33.26210000     -70.48520000
H      -46.66120000     -32.34780000     -70.77810000
H      -47.82400000     -33.39760000     -71.34270000
C      -46.48870000     -34.48810000     -70.21210000
H      -45.42640000     -34.33400000     -69.93970000
H      -47.00330000     -35.03520000     -69.38720000
C      -44.37030000     -32.82710000     -72.25680000
H      -44.49330000     -31.82120000     -72.54710000
H      -44.82660000     -32.94830000     -71.25960000
C      -45.00570000     -33.78980000     -73.19050000
C      -44.81300000     -33.80090000     -74.48960000
C      -45.76650000     -34.92710000     -72.75530000
H      -44.36340000     -33.00130000     -75.15860000
C      -46.05040000     -35.84720000     -73.72980000
C      -46.31850000     -35.39760000     -71.47110000
C      -46.75390000     -36.68950000     -71.49420000
S      -45.43820000     -35.26210000     -75.30620000
S      -46.59610000     -37.31100000     -73.10050000
H      -47.32780000     -37.21180000     -70.65400000
