40
Properties=species:S:1:pos:R:3 #=T CELL(abcABC):=T 1.889726e+02=T 90.00000=T Traj:=T positionsangstrom=T Step:=T 0=T Bead:=T pbc="F F F"
C      -46.20140000     -34.68000000     -75.04860000
C      -46.85730000     -34.82000000     -73.82890000
C      -46.98920000     -33.67280000     -73.04320000
C      -46.40940000     -32.40530000     -73.42530000
C      -45.89050000     -32.31010000     -74.70440000
C      -45.70250000     -33.43890000     -75.47280000
H      -45.95740000     -35.50690000     -75.75370000
H      -47.40960000     -33.70460000     -72.07430000
H      -45.37800000     -31.42610000     -75.10050000
H      -45.25990000     -33.29030000     -76.44130000
C      -46.53380000     -31.15160000     -72.51970000
H      -46.63860000     -31.58650000     -71.51740000
H      -47.43010000     -30.53630000     -72.70430000
C      -47.38310000     -36.14590000     -73.24130000
H      -48.41650000     -36.13350000     -73.01960000
H      -47.33110000     -36.93460000     -73.98240000
S      -45.09090000     -30.01830000     -72.77700000
S      -46.67330000     -36.72400000     -71.54960000
C      -43.61280000     -31.18340000     -72.82600000
H      -43.58200000     -31.64550000     -73.83240000
H      -42.87450000     -30.37700000     -72.71950000
C      -44.81040000     -36.73290000     -71.64900000
H      -44.57130000     -37.06890000     -72.62900000
H      -44.33990000     -37.42310000     -70.89830000
C      -44.21200000     -35.36760000     -71.28920000
H      -43.09730000     -35.54080000     -71.09380000
H      -44.32160000     -34.76530000     -72.19240000
C      -43.51450000     -32.33240000     -71.83930000
H      -42.50360000     -32.76690000     -71.83930000
H      -44.08550000     -33.04960000     -72.39630000
C      -44.01480000     -32.14640000     -70.46170000
C      -43.99670000     -30.98030000     -69.73030000
C      -44.42790000     -33.28520000     -69.67090000
H      -43.59020000     -30.07090000     -70.17130000
C      -44.82010000     -32.90310000     -68.37600000
C      -44.61020000     -34.69430000     -69.92110000
C      -45.07590000     -35.37350000     -68.77860000
S      -44.46020000     -31.25460000     -68.06780000
S      -45.28330000     -34.26610000     -67.39600000
H      -45.42050000     -36.43100000     -68.69100000
