40
Properties=species:S:1:pos:R:3 #=T CELL(abcABC):=T 1.889726e+02=T 90.00000=T Traj:=T positionsangstrom=T Step:=T 0=T Bead:=T pbc="F F F"
C      -45.43620000     -34.68220000     -75.33830000
C      -45.21340000     -33.57370000     -74.53830000
C      -46.27260000     -33.04180000     -73.77590000
C      -47.44330000     -33.80600000     -73.72060000
C      -47.69110000     -34.91140000     -74.51640000
C      -46.68040000     -35.37410000     -75.35680000
H      -44.64800000     -34.98400000     -75.92660000
H      -46.25450000     -32.20770000     -73.05000000
H      -48.66090000     -35.44310000     -74.54820000
H      -46.93640000     -36.10810000     -76.14590000
C      -48.64430000     -33.42650000     -72.86350000
H      -49.53430000     -34.08370000     -73.08690000
H      -48.85580000     -32.40710000     -73.15790000
C      -43.93820000     -32.70020000     -74.68610000
H      -43.75840000     -32.50750000     -75.70680000
H      -44.04060000     -31.70610000     -74.20180000
S      -48.60050000     -33.45870000     -71.02010000
S      -42.35110000     -33.57910000     -74.11650000
C      -47.84990000     -35.05840000     -70.59690000
H      -48.41890000     -35.43900000     -69.74290000
H      -47.97150000     -35.70570000     -71.42420000
C      -42.35140000     -32.98740000     -72.36980000
H      -42.37910000     -31.95670000     -72.45180000
H      -41.37100000     -33.29250000     -71.95840000
C      -43.44870000     -33.57260000     -71.57780000
H      -44.38150000     -33.49440000     -72.12630000
H      -43.26240000     -34.63560000     -71.35650000
C      -46.28960000     -35.02770000     -70.34340000
H      -45.91920000     -34.76750000     -71.30490000
H      -45.94980000     -36.01970000     -70.07640000
C      -45.71390000     -34.12190000     -69.21950000
C      -46.25560000     -34.02350000     -67.97500000
C      -44.67910000     -33.13710000     -69.40530000
H      -47.13420000     -34.58890000     -67.76640000
C      -44.57290000     -32.37050000     -68.27690000
C      -43.53240000     -32.87410000     -70.23400000
C      -42.73780000     -31.87650000     -69.78140000
S      -45.60500000     -32.83820000     -66.94330000
S      -43.28200000     -31.20280000     -68.26030000
H      -41.87690000     -31.53150000     -70.43580000
