40
Properties=species:S:1:pos:R:3 #=T CELL(abcABC):=T 1.889726e+02=T 90.00000=T Traj:=T positionsangstrom=T Step:=T 0=T Bead:=T pbc="F F F"
C      -41.84970000     -32.63140000     -69.91030000
C      -42.76600000     -31.56060000     -69.95010000
C      -43.11980000     -30.96710000     -71.17640000
C      -42.64070000     -31.51960000     -72.39260000
C      -41.86100000     -32.65190000     -72.32340000
C      -41.35060000     -33.09390000     -71.11230000
H      -41.58760000     -32.93750000     -68.94740000
H      -43.84310000     -30.19010000     -71.02520000
H      -41.55830000     -33.04690000     -73.29530000
H      -40.64830000     -33.97470000     -71.08890000
C      -43.18840000     -31.19960000     -73.76240000
H      -43.31130000     -32.03210000     -74.43030000
H      -42.41700000     -30.49770000     -74.29460000
C      -43.37130000     -31.12260000     -68.66310000
H      -42.52520000     -30.61460000     -68.08940000
H      -44.16520000     -30.35640000     -68.77280000
S      -44.79310000     -30.34410000     -73.79200000
S      -43.97210000     -32.51140000     -67.60660000
C      -45.98650000     -31.77980000     -73.77010000
H      -46.99480000     -31.34550000     -73.77290000
H      -45.71410000     -32.16640000     -74.75380000
C      -44.79040000     -33.75210000     -68.90600000
H      -44.73550000     -34.80490000     -68.60440000
H      -44.21220000     -33.79320000     -69.91680000
C      -46.37730000     -33.53120000     -69.15360000
H      -46.86460000     -33.47180000     -68.16500000
H      -46.56880000     -32.57680000     -69.57380000
C      -45.81720000     -32.72000000     -72.52420000
H      -46.12600000     -32.12650000     -71.64440000
H      -44.72630000     -33.06280000     -72.39590000
C      -46.70150000     -33.99210000     -72.62340000
C      -47.05080000     -34.53140000     -73.85620000
C      -47.08920000     -34.77720000     -71.46270000
H      -46.92980000     -34.23340000     -74.88800000
C      -47.83420000     -35.88120000     -71.83620000
C      -46.99880000     -34.67840000     -70.00340000
C      -47.66140000     -35.70670000     -69.38430000
S      -47.92430000     -36.08960000     -73.57530000
S      -48.40870000     -36.80400000     -70.48130000
H      -47.62710000     -35.81310000     -68.27390000
