40
Properties=species:S:1:pos:R:3 #=T CELL(abcABC):=T 1.889726e+02=T 90.00000=T Traj:=T positionsangstrom=T Step:=T 0=T Bead:=T pbc="F F F"
C      -41.71920000     -32.86050000     -70.37320000
C      -42.61720000     -31.72530000     -70.16790000
C      -42.99140000     -30.93590000     -71.25280000
C      -42.57800000     -31.20980000     -72.52930000
C      -41.73900000     -32.32300000     -72.73560000
C      -41.30430000     -33.10160000     -71.70380000
H      -41.45540000     -33.55510000     -69.55520000
H      -43.63550000     -30.03400000     -71.10540000
H      -41.39590000     -32.58100000     -73.73990000
H      -40.74630000     -34.01140000     -71.93480000
C      -43.19140000     -30.49500000     -73.70890000
H      -42.82630000     -30.80290000     -74.62110000
H      -42.97370000     -29.40650000     -73.62700000
C      -43.08240000     -31.30770000     -68.79010000
H      -42.26230000     -31.24930000     -68.11160000
H      -43.53620000     -30.24700000     -68.86450000
S      -44.98550000     -30.43450000     -73.89450000
S      -44.20380000     -32.38710000     -67.74420000
C      -45.62530000     -32.18860000     -73.73820000
H      -46.55160000     -32.08000000     -74.37020000
H      -44.82940000     -32.75080000     -74.18970000
C      -45.01490000     -33.56840000     -68.93520000
H      -44.98730000     -34.52750000     -68.42960000
H      -44.36200000     -33.69410000     -69.82770000
C      -46.48720000     -33.37180000     -69.14700000
H      -46.88590000     -33.33670000     -68.10490000
H      -46.79350000     -32.48600000     -69.75470000
C      -46.00960000     -32.72240000     -72.40720000
H      -46.73610000     -32.00340000     -71.97890000
H      -45.16750000     -32.72480000     -71.76010000
C      -46.58720000     -34.12860000     -72.42770000
C      -46.81220000     -34.82430000     -73.60160000
C      -47.10240000     -34.79450000     -71.24880000
H      -46.59970000     -34.54460000     -74.61910000
C      -47.76810000     -35.98760000     -71.60280000
C      -47.13280000     -34.56620000     -69.83120000
C      -47.79410000     -35.57220000     -69.20300000
S      -47.83610000     -36.27700000     -73.34510000
S      -48.43920000     -36.84270000     -70.22220000
H      -47.84990000     -35.81690000     -68.19040000
