40
Properties=species:S:1:pos:R:3 #=T CELL(abcABC):=T 1.889726e+02=T 90.00000=T Traj:=T positionsangstrom=T Step:=T 0=T Bead:=T pbc="F F F"
C      -41.80770000     -32.81350000     -70.25970000
C      -42.73030000     -31.75680000     -70.13740000
C      -43.12980000     -31.00380000     -71.28420000
C      -42.61460000     -31.37800000     -72.52910000
C      -41.66790000     -32.38110000     -72.62330000
C      -41.33180000     -33.15570000     -71.54630000
H      -41.49270000     -33.31740000     -69.29750000
H      -43.97810000     -30.23450000     -71.20280000
H      -41.15120000     -32.71180000     -73.52620000
H      -40.53130000     -33.89830000     -71.66910000
C      -43.09210000     -30.65900000     -73.81710000
H      -42.84960000     -31.40820000     -74.65770000
H      -42.64470000     -29.70840000     -74.08110000
C      -43.19870000     -31.25420000     -68.80260000
H      -42.38430000     -30.96020000     -68.18870000
H      -43.84820000     -30.39080000     -69.14400000
S      -45.00070000     -30.35890000     -73.70210000
S      -44.17280000     -32.38880000     -67.74870000
C      -45.61890000     -32.15400000     -73.76320000
H      -46.62970000     -32.06510000     -74.18240000
H      -45.06370000     -32.71790000     -74.49930000
C      -44.93570000     -33.57730000     -68.95360000
H      -44.47440000     -34.60330000     -68.74850000
H      -44.56540000     -33.27040000     -69.93820000
C      -46.47090000     -33.54680000     -68.91790000
H      -46.80520000     -33.56350000     -67.91970000
H      -46.69990000     -32.56540000     -69.33680000
C      -45.67360000     -32.79660000     -72.44550000
H      -46.03970000     -32.10310000     -71.62520000
H      -44.62250000     -33.06570000     -72.14780000
C      -46.60040000     -34.04050000     -72.46590000
C      -46.94680000     -34.68260000     -73.63230000
C      -47.18370000     -34.72880000     -71.31680000
H      -46.60220000     -34.33370000     -74.62140000
C      -47.84170000     -35.90370000     -71.68530000
C      -47.07730000     -34.62150000     -69.81970000
C      -47.78410000     -35.61380000     -69.23270000
S      -47.85450000     -36.15310000     -73.41150000
S      -48.42100000     -36.87080000     -70.40150000
H      -47.92950000     -35.75370000     -68.20640000
