40
Properties=species:S:1:pos:R:3 #=T CELL(abcABC):=T 1.889726e+02=T 90.00000=T Traj:=T positionsangstrom=T Step:=T 0=T Bead:=T pbc="F F F"
C      -41.53470000     -31.66860000     -70.50330000
C      -42.90490000     -31.26540000     -70.50000000
C      -43.54430000     -31.04970000     -71.73730000
C      -42.85220000     -31.33840000     -72.98610000
C      -41.59610000     -31.89270000     -72.92150000
C      -40.86640000     -31.88920000     -71.73510000
H      -41.08640000     -31.75880000     -69.51980000
H      -44.62560000     -30.88360000     -71.84750000
H      -41.09650000     -32.17120000     -73.82870000
H      -39.89360000     -32.27570000     -71.66670000
C      -43.51820000     -31.24220000     -74.32240000
H      -43.26130000     -32.08010000     -74.90770000
H      -43.05300000     -30.38670000     -74.95250000
C      -43.75120000     -31.04790000     -69.27440000
H      -43.52230000     -30.05660000     -68.91290000
H      -44.85120000     -31.08430000     -69.61820000
S      -45.34310000     -31.01460000     -74.38150000
S      -43.45370000     -32.25640000     -67.95850000
C      -46.04370000     -32.63130000     -74.12540000
H      -47.02160000     -32.61350000     -74.55890000
H      -45.44100000     -33.29780000     -74.77990000
C      -44.55660000     -33.66110000     -68.58610000
H      -44.78860000     -34.27990000     -67.64430000
H      -43.96800000     -34.30940000     -69.20870000
C      -45.84510000     -33.31080000     -69.29870000
H      -46.48570000     -32.60580000     -68.79310000
H      -45.75840000     -32.80010000     -70.26670000
C      -46.05200000     -33.10300000     -72.64640000
H      -46.37700000     -32.27240000     -71.99420000
H      -44.95270000     -33.23230000     -72.43740000
C      -46.91620000     -34.30220000     -72.32070000
C      -47.52070000     -35.04120000     -73.31560000
C      -47.11270000     -34.87270000     -70.99920000
H      -47.28450000     -34.92250000     -74.36320000
C      -47.70290000     -36.15570000     -71.12560000
C      -46.63160000     -34.53140000     -69.66720000
C      -47.08970000     -35.44730000     -68.76700000
S      -48.39120000     -36.41350000     -72.71870000
S      -48.07360000     -36.69770000     -69.47920000
H      -46.83590000     -35.48960000     -67.73250000
