40
Properties=species:S:1:pos:R:3 #=T CELL(abcABC):=T 1.889726e+02=T 90.00000=T Traj:=T positionsangstrom=T Step:=T 0=T Bead:=T pbc="F F F"
C      -41.41950000     -31.73080000     -70.50690000
C      -42.77490000     -31.32190000     -70.50180000
C      -43.32590000     -31.08160000     -71.76010000
C      -42.68160000     -31.39490000     -72.97980000
C      -41.36130000     -31.73890000     -72.97450000
C      -40.71970000     -31.96610000     -71.67970000
H      -40.91790000     -31.92590000     -69.54270000
H      -44.32780000     -30.69980000     -71.77450000
H      -40.74760000     -31.96450000     -73.81770000
H      -39.64270000     -32.30470000     -71.61450000
C      -43.51970000     -31.32640000     -74.30160000
H      -43.44750000     -32.30610000     -74.81780000
H      -43.11500000     -30.62660000     -75.03710000
C      -43.54160000     -30.92150000     -69.25700000
H      -43.02980000     -30.05570000     -68.72470000
H      -44.53390000     -30.60840000     -69.49950000
S      -45.38650000     -30.85720000     -74.34720000
S      -43.70330000     -32.33130000     -68.01820000
C      -46.20200000     -32.39000000     -73.82890000
H      -47.25780000     -32.24820000     -74.05360000
H      -45.84600000     -33.12600000     -74.53080000
C      -44.71920000     -33.50900000     -69.19540000
H      -44.37850000     -34.50440000     -69.04950000
H      -44.43880000     -33.32940000     -70.29650000
C      -46.21110000     -33.40930000     -68.94260000
H      -46.48900000     -33.31890000     -67.89980000
H      -46.59090000     -32.57080000     -69.45730000
C      -46.08070000     -32.89920000     -72.41380000
H      -46.41410000     -32.11170000     -71.68060000
H      -44.99860000     -32.94360000     -72.25260000
C      -46.74770000     -34.28030000     -72.18700000
C      -47.16030000     -35.04000000     -73.29470000
C      -47.07570000     -34.92140000     -70.93620000
H      -47.27960000     -34.73530000     -74.33430000
C      -47.81140000     -36.06870000     -71.12080000
C      -46.99360000     -34.59100000     -69.51350000
C      -47.63080000     -35.52160000     -68.73840000
S      -47.89490000     -36.57360000     -72.80070000
S      -48.27260000     -36.80100000     -69.66510000
H      -47.72520000     -35.41290000     -67.64790000
