40
Properties=species:S:1:pos:R:3 #=T CELL(abcABC):=T 1.889726e+02=T 90.00000=T Traj:=T positionsangstrom=T Step:=T 0=T Bead:=T pbc="F F F"
C      -42.01450000     -32.19190000     -70.13370000
C      -43.08190000     -31.37100000     -70.18350000
C      -43.51570000     -30.91290000     -71.43410000
C      -42.99810000     -31.31600000     -72.66010000
C      -41.96590000     -32.29170000     -72.56680000
C      -41.39740000     -32.66270000     -71.32480000
H      -41.51160000     -32.38400000     -69.22720000
H      -44.37990000     -30.20210000     -71.48510000
H      -41.65990000     -32.67550000     -73.56510000
H      -40.44460000     -33.12650000     -71.21150000
C      -43.42820000     -30.75750000     -74.00450000
H      -42.96410000     -31.16730000     -74.86200000
H      -43.04590000     -29.73810000     -73.97190000
C      -43.90870000     -30.91330000     -69.03500000
H      -43.37230000     -30.12600000     -68.55680000
H      -44.82500000     -30.34230000     -69.39070000
S      -45.25700000     -30.70440000     -74.18000000
S      -44.04120000     -32.25310000     -67.75190000
C      -45.66830000     -32.50160000     -74.01250000
H      -46.71210000     -32.64230000     -74.37800000
H      -45.10290000     -33.03710000     -74.80090000
C      -44.68460000     -33.52600000     -68.92260000
H      -44.72980000     -34.56450000     -68.44510000
H      -44.04530000     -33.60800000     -69.83010000
C      -46.17750000     -33.24530000     -69.26380000
H      -46.57350000     -32.93680000     -68.31080000
H      -46.34960000     -32.46580000     -69.97140000
C      -45.41730000     -33.14870000     -72.65250000
H      -45.63140000     -32.53980000     -71.78150000
H      -44.42290000     -33.52960000     -72.55470000
C      -46.38220000     -34.34920000     -72.47870000
C      -46.70490000     -35.15020000     -73.58560000
C      -46.87100000     -34.84510000     -71.18680000
H      -46.64930000     -34.95560000     -74.65130000
C      -47.65540000     -35.96630000     -71.46340000
C      -46.87290000     -34.47720000     -69.81030000
C      -47.47000000     -35.41650000     -69.04910000
S      -47.71240000     -36.49370000     -73.08980000
S      -48.19780000     -36.74140000     -69.97990000
H      -47.49070000     -35.45220000     -67.96390000
