40
Properties=species:S:1:pos:R:3 #=T CELL(abcABC):=T 1.889726e+02=T 90.00000=T Traj:=T positionsangstrom=T Step:=T 0=T Bead:=T pbc="F F F"
C      -42.03300000     -32.48710000     -70.35480000
C      -42.98360000     -31.47310000     -70.30220000
C      -43.35410000     -30.82920000     -71.48000000
C      -42.83210000     -31.25110000     -72.70790000
C      -41.96820000     -32.38030000     -72.72790000
C      -41.55710000     -32.97190000     -71.55260000
H      -41.82890000     -32.94060000     -69.33530000
H      -44.00560000     -29.99440000     -71.55210000
H      -41.57670000     -32.59550000     -73.69150000
H      -40.88790000     -33.88420000     -71.57790000
C      -43.27410000     -30.44970000     -73.92600000
H      -42.83610000     -30.82750000     -74.83080000
H      -43.16040000     -29.39050000     -73.81130000
C      -43.57670000     -30.95590000     -68.96850000
H      -42.99090000     -30.11120000     -68.51430000
H      -44.46430000     -30.47100000     -69.25460000
S      -45.12170000     -30.64730000     -74.22920000
S      -44.07810000     -32.25950000     -67.70180000
C      -45.64380000     -32.41120000     -74.01450000
H      -46.62520000     -32.51740000     -74.42990000
H      -44.92910000     -33.09830000     -74.51930000
C      -44.88220000     -33.66550000     -68.56980000
H      -44.89690000     -34.39490000     -67.75760000
H      -44.19930000     -34.18490000     -69.32780000
C      -46.26570000     -33.39040000     -69.09660000
H      -46.81590000     -32.89480000     -68.30970000
H      -46.16240000     -32.67240000     -69.88040000
C      -45.78470000     -32.87220000     -72.54910000
H      -46.33650000     -32.11670000     -71.99350000
H      -44.76170000     -32.94610000     -72.06010000
C      -46.43050000     -34.23180000     -72.42280000
C      -46.77460000     -34.97130000     -73.55170000
C      -46.89380000     -34.83350000     -71.21170000
H      -46.40210000     -34.91940000     -74.56910000
C      -47.56920000     -36.03160000     -71.41520000
C      -46.86510000     -34.59860000     -69.73450000
C      -47.63090000     -35.50450000     -69.04810000
S      -47.56790000     -36.47830000     -73.13040000
S      -48.37530000     -36.71140000     -70.03900000
H      -47.85940000     -35.42150000     -67.99410000
