40
Properties=species:S:1:pos:R:3 #=T CELL(abcABC):=T 1.889726e+02=T 90.00000=T Traj:=T positionsangstrom=T Step:=T 0=T Bead:=T pbc="F F F"
C      -45.91280000     -35.47490000     -75.02510000
C      -46.48280000     -35.71020000     -73.72690000
C      -45.58450000     -36.22240000     -72.76410000
C      -44.22700000     -36.35560000     -72.99360000
C      -43.77500000     -36.30130000     -74.37580000
C      -44.64540000     -35.91810000     -75.31240000
H      -46.51520000     -35.04580000     -75.77220000
H      -45.77780000     -36.42980000     -71.70530000
H      -42.69330000     -36.57620000     -74.49390000
H      -44.30610000     -35.99990000     -76.32200000
C      -43.37180000     -36.64850000     -71.83840000
H      -42.66900000     -37.46400000     -72.06710000
H      -44.04840000     -36.99220000     -71.04220000
C      -47.91180000     -35.42540000     -73.43380000
H      -48.47470000     -35.38120000     -74.39960000
H      -48.55150000     -36.12450000     -72.88020000
S      -42.19630000     -35.27470000     -71.36290000
S      -48.14290000     -33.76300000     -72.69030000
C      -43.21800000     -33.75100000     -70.89080000
H      -42.67760000     -32.87370000     -71.16560000
H      -44.03940000     -33.85120000     -71.55620000
C      -48.12210000     -34.22790000     -70.93300000
H      -48.16980000     -35.36310000     -70.85490000
H      -49.13600000     -34.02290000     -70.42250000
C      -46.91020000     -33.76740000     -70.19550000
H      -46.79390000     -34.22570000     -69.17910000
H      -46.02220000     -34.22830000     -70.64830000
C      -43.51040000     -33.61240000     -69.37260000
H      -42.60710000     -33.89080000     -68.78710000
H      -44.25280000     -34.35830000     -69.05620000
C      -43.99680000     -32.22070000     -69.19620000
C      -43.18610000     -31.23510000     -68.84970000
C      -45.29900000     -31.75300000     -69.70420000
H      -42.12410000     -31.33360000     -68.52070000
C      -45.36760000     -30.37010000     -69.48000000
C      -46.59130000     -32.29310000     -70.09080000
C      -47.49920000     -31.32000000     -70.33470000
S      -43.91740000     -29.61140000     -68.93400000
S      -46.88760000     -29.70380000     -70.07980000
H      -48.36700000     -31.44360000     -71.03180000
