40
Properties=species:S:1:pos:R:3 #=T CELL(abcABC):=T 1.889726e+02=T 90.00000=T Traj:=T positionsangstrom=T Step:=T 0=T Bead:=T pbc="F F F"
C      -41.59210000     -32.03630000     -70.78700000
C      -42.78410000     -31.26110000     -70.86290000
C      -43.47140000     -31.24430000     -72.10750000
C      -43.02610000     -31.96620000     -73.20380000
C      -41.82950000     -32.69430000     -73.10050000
C      -41.06210000     -32.72690000     -71.92950000
H      -41.06360000     -32.22460000     -69.93170000
H      -44.30750000     -30.63160000     -72.30230000
H      -41.54340000     -33.32390000     -73.94420000
H      -40.11760000     -33.29040000     -71.65200000
C      -43.69450000     -31.92700000     -74.54180000
H      -43.83450000     -32.93600000     -74.96140000
H      -43.01220000     -31.47840000     -75.29450000
C      -43.30520000     -30.61050000     -69.60560000
H      -42.49080000     -29.91660000     -69.31160000
H      -44.18270000     -30.04780000     -69.75680000
S      -45.33410000     -31.14250000     -74.60000000
S      -43.31660000     -31.89700000     -68.21840000
C      -46.35980000     -32.64290000     -74.07810000
H      -47.37790000     -32.36490000     -74.20530000
H      -46.09840000     -33.45310000     -74.65610000
C      -44.17490000     -33.30100000     -69.11120000
H      -44.03090000     -34.09020000     -68.44370000
H      -43.70150000     -33.58560000     -70.06020000
C      -45.71520000     -33.04180000     -69.25720000
H      -45.92430000     -32.49240000     -68.29540000
H      -45.86860000     -32.39800000     -70.19370000
C      -46.31520000     -32.91610000     -72.56980000
H      -46.66260000     -31.99900000     -72.00460000
H      -45.25420000     -33.09490000     -72.26060000
C      -47.18680000     -34.09730000     -72.11440000
C      -47.94640000     -34.89390000     -72.96940000
C      -47.09540000     -34.66900000     -70.79490000
H      -48.13700000     -34.67230000     -74.02110000
C      -47.78640000     -35.86380000     -70.71090000
C      -46.52950000     -34.30530000     -69.47960000
C      -46.64280000     -35.33710000     -68.61950000
S      -48.73830000     -36.23190000     -72.10370000
S      -47.70620000     -36.67610000     -69.17820000
H      -46.29270000     -35.43270000     -67.60180000
