40
Properties=species:S:1:pos:R:3 #=T CELL(abcABC):=T 1.889726e+02=T 90.00000=T Traj:=T positionsangstrom=T Step:=T 0=T Bead:=T pbc="F F F"
C      -45.60230000     -32.59690000     -68.58650000
C      -46.79290000     -32.53920000     -69.27830000
C      -47.17750000     -33.69440000     -69.96310000
C      -46.43080000     -34.84120000     -69.98500000
C      -45.19380000     -34.92540000     -69.26370000
C      -44.73940000     -33.76360000     -68.59360000
H      -45.19980000     -31.65290000     -68.11880000
H      -47.97890000     -33.63310000     -70.61120000
H      -44.49190000     -35.78930000     -69.34200000
H      -43.84790000     -33.75110000     -68.01950000
C      -46.93670000     -36.00340000     -70.78650000
H      -47.67010000     -36.51730000     -70.14620000
H      -46.15420000     -36.68930000     -71.02750000
C      -47.55570000     -31.36730000     -69.31250000
H      -48.52010000     -31.55650000     -69.72700000
H      -47.82430000     -31.00550000     -68.24590000
S      -47.95540000     -35.55520000     -72.22870000
S      -46.53800000     -30.05850000     -70.11820000
C      -46.72500000     -35.85900000     -73.60850000
H      -46.16910000     -36.70060000     -73.39300000
H      -47.41560000     -36.12560000     -74.38510000
C      -46.63040000     -30.27430000     -71.91380000
H      -46.20400000     -29.34590000     -72.27270000
H      -47.67480000     -30.25300000     -72.27750000
C      -46.05900000     -31.59360000     -72.48320000
H      -46.79030000     -32.39090000     -72.24720000
H      -46.05510000     -31.44880000     -73.57980000
C      -45.93160000     -34.67820000     -74.07480000
H      -46.57000000     -33.83310000     -74.16650000
H      -45.61340000     -34.89460000     -75.07440000
C      -44.66090000     -34.53410000     -73.15010000
C      -43.81490000     -35.54770000     -73.17220000
C      -44.16270000     -33.36180000     -72.35810000
H      -43.90620000     -36.38420000     -73.70560000
C      -42.89800000     -33.58400000     -71.84440000
C      -44.67410000     -32.02720000     -72.14530000
C      -43.73910000     -31.23570000     -71.56850000
S      -42.42160000     -35.24690000     -72.08990000
S      -42.22740000     -32.03930000     -71.11650000
H      -43.81240000     -30.28370000     -71.08310000
