40
Properties=species:S:1:pos:R:3 #=T CELL(abcABC):=T 1.889726e+02=T 90.00000=T Traj:=T positionsangstrom=T Step:=T 0=T Bead:=T pbc="F F F"
C      -41.45990000     -32.46580000     -71.35500000
C      -42.53150000     -31.50360000     -71.31100000
C      -43.39490000     -31.40650000     -72.40330000
C      -43.13910000     -32.13190000     -73.60050000
C      -42.11440000     -33.13430000     -73.59000000
C      -41.26280000     -33.26360000     -72.54120000
H      -40.77480000     -32.50680000     -70.49900000
H      -44.13180000     -30.60410000     -72.45750000
H      -41.83300000     -33.86640000     -74.37410000
H      -40.47930000     -33.94950000     -72.60000000
C      -43.98040000     -31.94850000     -74.83170000
H      -44.11800000     -32.82700000     -75.45930000
H      -43.48960000     -31.26870000     -75.57540000
C      -42.53240000     -30.59380000     -70.13200000
H      -41.53530000     -30.23750000     -70.03750000
H      -43.21090000     -29.73260000     -70.38970000
S      -45.69440000     -31.26990000     -74.65210000
S      -43.13120000     -31.54770000     -68.67910000
C      -46.65840000     -32.81390000     -73.99750000
H      -47.64590000     -32.62930000     -74.41180000
H      -46.22720000     -33.75640000     -74.50970000
C      -44.23370000     -32.87590000     -69.28820000
H      -43.96640000     -33.83350000     -68.80000000
H      -44.01860000     -33.08090000     -70.33200000
C      -45.76960000     -32.69750000     -69.14550000
H      -46.02780000     -32.29910000     -68.18020000
H      -46.08490000     -31.89740000     -69.84650000
C      -46.59970000     -32.95220000     -72.46450000
H      -47.20800000     -32.11160000     -72.05710000
H      -45.58970000     -32.75010000     -72.06640000
C      -47.09650000     -34.26790000     -71.87600000
C      -47.85670000     -35.15420000     -72.57330000
C      -47.05800000     -34.65770000     -70.44270000
H      -48.06630000     -35.10080000     -73.67430000
C      -47.79200000     -35.78890000     -70.19350000
C      -46.56340000     -34.01930000     -69.24700000
C      -46.84510000     -34.74440000     -68.14430000
S      -48.40240000     -36.54040000     -71.63980000
S      -47.69090000     -36.27550000     -68.53510000
H      -46.67550000     -34.42050000     -67.11570000
