40
Properties=species:S:1:pos:R:3 #=T CELL(abcABC):=T 1.889726e+02=T 90.00000=T Traj:=T positionsangstrom=T Step:=T 0=T Bead:=T pbc="F F F"
C      -45.56330000     -34.99490000     -67.54300000
C      -44.89540000     -35.50990000     -68.66750000
C      -43.74830000     -34.84110000     -69.02290000
C      -43.34590000     -33.65200000     -68.44080000
C      -43.98880000     -33.17820000     -67.31790000
C      -45.14050000     -33.87020000     -66.87550000
H      -46.48900000     -35.45910000     -67.24930000
H      -43.15510000     -35.11790000     -69.92320000
H      -43.74420000     -32.25660000     -66.92170000
H      -45.73130000     -33.55680000     -65.99920000
C      -42.12990000     -32.97290000     -68.95280000
H      -41.23170000     -33.14390000     -68.35060000
H      -42.26410000     -31.83880000     -68.84760000
C      -45.49380000     -36.61930000     -69.42350000
H      -44.93020000     -36.79110000     -70.35230000
H      -45.49460000     -37.58430000     -68.79830000
S      -41.55970000     -33.18840000     -70.70500000
S      -47.31070000     -36.32540000     -69.75540000
C      -43.01160000     -32.70080000     -71.86690000
H      -42.54690000     -32.23180000     -72.80850000
H      -43.18380000     -33.70160000     -72.19420000
C      -47.16000000     -34.68680000     -70.58140000
H      -46.74060000     -34.01370000     -69.86160000
H      -48.14940000     -34.32900000     -70.91760000
C      -46.33770000     -34.70080000     -71.89170000
H      -45.24780000     -34.62860000     -71.61390000
H      -46.42150000     -35.67380000     -72.35710000
C      -44.16490000     -31.88940000     -71.41310000
H      -43.81180000     -31.05400000     -70.84380000
H      -44.69350000     -32.53970000     -70.67350000
C      -45.01940000     -31.58060000     -72.55510000
C      -44.79450000     -30.50330000     -73.35480000
C      -46.05650000     -32.35480000     -73.18440000
H      -44.11550000     -29.67330000     -73.15390000
C      -46.70610000     -31.71810000     -74.23680000
C      -46.75860000     -33.61120000     -72.88700000
C      -47.76990000     -33.86740000     -73.73230000
S      -45.89010000     -30.24690000     -74.72680000
S      -48.04430000     -32.64080000     -74.88640000
H      -48.46890000     -34.69050000     -73.58510000
