40
Properties=species:S:1:pos:R:3 #=T CELL(abcABC):=T 1.889726e+02=T 90.00000=T Traj:=T positionsangstrom=T Step:=T 0=T Bead:=T pbc="F F F"
C      -45.57990000     -32.70860000     -68.52190000
C      -46.78210000     -32.58760000     -69.25570000
C      -47.29040000     -33.67930000     -69.86900000
C      -46.46460000     -34.76910000     -70.00780000
C      -45.25220000     -34.86840000     -69.39390000
C      -44.82780000     -33.85500000     -68.55220000
H      -45.27720000     -31.80040000     -67.98440000
H      -48.24930000     -33.69570000     -70.21930000
H      -44.64950000     -35.82990000     -69.36060000
H      -43.97490000     -34.00530000     -67.93490000
C      -46.99570000     -35.98590000     -70.78540000
H      -47.63430000     -36.63200000     -70.15970000
H      -46.13480000     -36.61570000     -71.09580000
C      -47.49930000     -31.25130000     -69.25160000
H      -48.48280000     -31.44990000     -69.58050000
H      -47.52110000     -30.79680000     -68.29220000
S      -48.02290000     -35.62820000     -72.31140000
S      -46.62380000     -29.82040000     -70.12740000
C      -46.94650000     -35.81070000     -73.76150000
H      -46.36620000     -36.78150000     -73.64900000
H      -47.53270000     -35.85400000     -74.73910000
C      -46.54820000     -30.24370000     -71.96660000
H      -45.93470000     -29.37300000     -72.38690000
H      -47.58250000     -30.08100000     -72.26310000
C      -46.04250000     -31.58100000     -72.45130000
H      -46.70970000     -32.42580000     -72.11020000
H      -46.09450000     -31.71070000     -73.50730000
C      -45.90870000     -34.67660000     -73.91960000
H      -46.46890000     -33.66350000     -73.86480000
H      -45.54690000     -34.75140000     -74.99490000
C      -44.61620000     -34.66900000     -73.01520000
C      -43.70190000     -35.71820000     -72.88880000
C      -44.15530000     -33.38020000     -72.48320000
H      -43.82190000     -36.65810000     -73.26050000
C      -42.83400000     -33.50970000     -72.03890000
C      -44.65990000     -32.06420000     -72.18310000
C      -43.78010000     -31.34380000     -71.39990000
S      -42.18960000     -35.11140000     -72.20390000
S      -42.24760000     -32.23020000     -71.06890000
H      -43.86700000     -30.34060000     -71.06210000
