40
Properties=species:S:1:pos:R:3 #=T CELL(abcABC):=T 1.889726e+02=T 90.00000=T Traj:=T positionsangstrom=T Step:=T 0=T Bead:=T pbc="F F F"
C      -45.26750000     -34.96040000     -75.15680000
C      -45.29130000     -33.64970000     -74.63550000
C      -46.38270000     -33.18780000     -73.94920000
C      -47.47100000     -34.02240000     -73.70840000
C      -47.40700000     -35.37030000     -74.18320000
C      -46.34180000     -35.83170000     -74.93550000
H      -44.31830000     -35.24190000     -75.63730000
H      -46.28260000     -32.21150000     -73.42610000
H      -48.15520000     -36.06030000     -73.80240000
H      -46.13960000     -36.86090000     -75.13730000
C      -48.67040000     -33.47640000     -72.93490000
H      -49.54650000     -34.19910000     -73.05300000
H      -48.92140000     -32.53730000     -73.42800000
C      -44.10380000     -32.81950000     -74.69920000
H      -43.90320000     -32.42770000     -75.71610000
H      -44.25400000     -31.94040000     -74.05310000
S      -48.21120000     -33.21060000     -71.18220000
S      -42.53660000     -33.67720000     -74.10120000
C      -47.71890000     -34.96350000     -70.79780000
H      -48.40480000     -35.32410000     -69.99840000
H      -47.87610000     -35.54550000     -71.69190000
C      -42.33010000     -32.89040000     -72.44810000
H      -42.35290000     -31.77830000     -72.61900000
H      -41.36260000     -33.26040000     -72.02960000
C      -43.53240000     -33.22800000     -71.57190000
H      -44.41030000     -32.87170000     -72.04620000
H      -43.61920000     -34.35420000     -71.53090000
C      -46.19660000     -34.97520000     -70.45780000
H      -45.65740000     -34.68200000     -71.32130000
H      -45.84520000     -36.05040000     -70.18990000
C      -45.81450000     -34.01140000     -69.38140000
C      -46.58200000     -33.82590000     -68.27080000
C      -44.68610000     -33.08470000     -69.33160000
H      -47.36750000     -34.48120000     -67.82490000
C      -44.61080000     -32.36420000     -68.17430000
C      -43.53480000     -32.77850000     -70.18960000
C      -42.63160000     -31.89350000     -69.57720000
S      -45.90490000     -32.69270000     -67.10900000
S      -43.29180000     -31.19580000     -68.04580000
H      -41.68590000     -31.52020000     -69.90080000
