40
Properties=species:S:1:pos:R:3 #=T CELL(abcABC):=T 1.889726e+02=T 90.00000=T Traj:=T positionsangstrom=T Step:=T 0=T Bead:=T pbc="F F F"
C      -41.82440000     -32.67340000     -72.07970000
C      -42.65850000     -31.59440000     -71.89040000
C      -43.55650000     -31.17040000     -72.86970000
C      -43.64400000     -31.88210000     -74.11080000
C      -42.66350000     -32.86250000     -74.32130000
C      -41.74920000     -33.30000000     -73.31850000
H      -41.15760000     -33.09580000     -71.26340000
H      -44.22280000     -30.42660000     -72.54020000
H      -42.58900000     -33.29170000     -75.37060000
H      -41.11500000     -34.17000000     -73.49750000
C      -44.66000000     -31.52000000     -75.14390000
H      -44.89100000     -32.45150000     -75.75740000
H      -44.34300000     -30.64100000     -75.65710000
C      -42.73260000     -30.96100000     -70.50560000
H      -41.80710000     -30.21460000     -70.39410000
H      -43.62810000     -30.30630000     -70.48440000
S      -46.33060000     -31.18420000     -74.37570000
S      -42.59170000     -32.21170000     -69.12400000
C      -46.88600000     -32.81580000     -73.72190000
H      -48.00640000     -32.74060000     -73.77500000
H      -46.62140000     -33.66800000     -74.30370000
C      -43.92060000     -33.41010000     -69.50000000
H      -43.80300000     -34.24480000     -68.81830000
H      -43.86220000     -33.66280000     -70.53220000
C      -45.27540000     -32.73680000     -69.16720000
H      -45.30730000     -32.02780000     -68.28190000
H      -45.56860000     -32.08480000     -70.02130000
C      -46.30980000     -33.04590000     -72.24920000
H      -46.63630000     -32.20870000     -71.73480000
H      -45.18910000     -33.06400000     -72.26940000
C      -46.82410000     -34.28830000     -71.53220000
C      -47.59110000     -35.23180000     -72.21450000
C      -46.85850000     -34.51740000     -70.15840000
H      -47.69770000     -35.32140000     -73.34560000
C      -47.61220000     -35.63370000     -69.76230000
C      -46.24690000     -33.84900000     -68.98420000
C      -46.48200000     -34.48360000     -67.79150000
S      -48.21360000     -36.53690000     -71.14310000
S      -47.50520000     -35.84240000     -67.96740000
H      -46.25400000     -34.03290000     -66.81230000
