40
Properties=species:S:1:pos:R:3 #=T CELL(abcABC):=T 1.889726e+02=T 90.00000=T Traj:=T positionsangstrom=T Step:=T 0=T Bead:=T pbc="F F F"
C      -46.01810000     -33.69190000     -67.64210000
C      -45.48850000     -34.86300000     -68.24660000
C      -44.17190000     -34.78550000     -68.70690000
C      -43.41020000     -33.61820000     -68.56930000
C      -43.92750000     -32.47920000     -67.85270000
C      -45.25070000     -32.52390000     -67.35110000
H      -46.97680000     -33.71820000     -67.18000000
H      -43.70250000     -35.70540000     -69.14290000
H      -43.39080000     -31.62150000     -67.91260000
H      -45.73350000     -31.74100000     -66.79230000
C      -42.00280000     -33.64090000     -69.06480000
H      -41.39910000     -34.46230000     -68.60950000
H      -41.52060000     -32.67320000     -68.87550000
C      -46.28000000     -36.13710000     -68.33400000
H      -45.61950000     -36.95540000     -68.70450000
H      -46.77220000     -36.33090000     -67.43300000
S      -41.92590000     -33.98110000     -70.86040000
S      -47.58360000     -35.86950000     -69.67470000
C      -42.73690000     -32.43270000     -71.57160000
H      -42.08150000     -31.62790000     -71.33610000
H      -42.73410000     -32.55550000     -72.67680000
C      -47.13800000     -34.57590000     -70.72680000
H      -46.53650000     -33.85970000     -70.07920000
H      -48.03300000     -33.97680000     -71.01700000
C      -46.18880000     -34.91460000     -71.91070000
H      -45.20630000     -35.05700000     -71.46390000
H      -46.46080000     -35.96170000     -72.16850000
C      -44.19500000     -32.12830000     -71.14940000
H      -44.08580000     -31.23750000     -70.54150000
H      -44.57050000     -32.88590000     -70.46890000
C      -44.99870000     -31.72150000     -72.43010000
C      -44.82860000     -30.51090000     -73.08310000
C      -45.86840000     -32.65390000     -73.16120000
H      -44.20800000     -29.64960000     -72.76770000
C      -46.33070000     -32.04020000     -74.34320000
C      -46.28950000     -34.05930000     -73.10650000
C      -47.08120000     -34.40850000     -74.22320000
S      -45.84060000     -30.40400000     -74.55650000
S      -47.40850000     -33.00970000     -75.24810000
H      -47.42610000     -35.43450000     -74.47130000
