40
Properties=species:S:1:pos:R:3 #=T CELL(abcABC):=T 1.889726e+02=T 90.00000=T Traj:=T positionsangstrom=T Step:=T 0=T Bead:=T pbc="F F F"
C      -41.63810000     -32.64160000     -71.91270000
C      -42.51620000     -31.52070000     -71.73110000
C      -43.49770000     -31.25610000     -72.71610000
C      -43.51380000     -31.94710000     -73.92450000
C      -42.48000000     -32.92560000     -74.15510000
C      -41.56480000     -33.26790000     -73.13990000
H      -40.81340000     -32.85730000     -71.23470000
H      -44.30510000     -30.53320000     -72.57360000
H      -42.37190000     -33.33180000     -75.11050000
H      -40.81120000     -34.04030000     -73.26810000
C      -44.46520000     -31.51670000     -75.03360000
H      -44.35820000     -32.06030000     -75.99160000
H      -44.14460000     -30.46850000     -75.31620000
C      -42.56890000     -30.85990000     -70.36040000
H      -41.65360000     -30.26110000     -70.18580000
H      -43.40460000     -30.05510000     -70.43720000
S      -46.22620000     -31.33680000     -74.51090000
S      -42.67970000     -31.82650000     -68.79930000
C      -46.63360000     -32.92240000     -73.79370000
H      -47.66960000     -33.06910000     -73.88700000
H      -46.27750000     -33.68960000     -74.45400000
C      -44.00760000     -33.19410000     -69.02800000
H      -43.95470000     -33.90080000     -68.26410000
H      -43.68340000     -33.67980000     -69.92270000
C      -45.47180000     -32.76130000     -69.10180000
H      -45.72400000     -32.23900000     -68.16180000
H      -45.81750000     -32.20270000     -69.97340000
C      -46.13680000     -33.13340000     -72.27790000
H      -46.51450000     -32.21600000     -71.70340000
H      -45.08360000     -33.20400000     -72.16770000
C      -46.80180000     -34.33020000     -71.74470000
C      -47.65360000     -35.22150000     -72.39340000
C      -46.77640000     -34.63090000     -70.27880000
H      -47.89990000     -35.20970000     -73.38900000
C      -47.49360000     -35.77780000     -70.01330000
C      -46.32400000     -34.02380000     -69.08420000
C      -46.84610000     -34.59210000     -67.93720000
S      -48.37750000     -36.43980000     -71.33510000
S      -47.82500000     -35.97260000     -68.28380000
H      -46.51200000     -34.46520000     -66.94790000
