40
Properties=species:S:1:pos:R:3 #=T CELL(abcABC):=T 1.889726e+02=T 90.00000=T Traj:=T positionsangstrom=T Step:=T 0=T Bead:=T pbc="F F F"
C      -41.68460000     -32.59410000     -72.02070000
C      -42.62990000     -31.60290000     -71.82460000
C      -43.52540000     -31.24170000     -72.80090000
C      -43.57070000     -31.89000000     -74.01390000
C      -42.58180000     -32.87400000     -74.24700000
C      -41.71180000     -33.26830000     -73.23320000
H      -41.10500000     -33.01850000     -71.24630000
H      -44.29020000     -30.46400000     -72.48940000
H      -42.65780000     -33.37330000     -75.11600000
H      -41.07030000     -34.11920000     -73.29280000
C      -44.53180000     -31.46760000     -75.07660000
H      -44.67440000     -32.14360000     -75.93450000
H      -44.21720000     -30.51460000     -75.56820000
C      -42.82190000     -30.92590000     -70.48760000
H      -42.26900000     -30.11700000     -70.26970000
H      -43.86730000     -30.69870000     -70.32180000
S      -46.15590000     -31.20530000     -74.42520000
S      -42.50350000     -32.04440000     -68.95680000
C      -46.74100000     -32.88720000     -73.91400000
H      -47.82400000     -32.89680000     -74.04640000
H      -46.28430000     -33.61650000     -74.67400000
C      -43.85750000     -33.27320000     -69.15700000
H      -43.61400000     -34.12730000     -68.48380000
H      -43.66010000     -33.69380000     -70.21460000
C      -45.35130000     -32.75490000     -69.01110000
H      -45.34290000     -32.31120000     -68.02650000
H      -45.51060000     -31.88500000     -69.68760000
C      -46.24900000     -33.13570000     -72.37700000
H      -46.45010000     -32.18850000     -71.73680000
H      -45.14880000     -33.21000000     -72.35580000
C      -46.90700000     -34.32530000     -71.65680000
C      -47.54980000     -35.37590000     -72.30640000
C      -47.09360000     -34.45910000     -70.22230000
H      -47.70910000     -35.43040000     -73.32890000
C      -47.84980000     -35.54960000     -69.87040000
C      -46.38850000     -33.86090000     -69.03770000
C      -46.72670000     -34.45590000     -67.86070000
S      -48.24660000     -36.59120000     -71.19510000
S      -47.65420000     -35.93530000     -68.14690000
H      -46.27860000     -34.21490000     -66.86840000
