40
Properties=species:S:1:pos:R:3 #=T CELL(abcABC):=T 1.889726e+02=T 90.00000=T Traj:=T positionsangstrom=T Step:=T 0=T Bead:=T pbc="F F F"
C      -45.26720000     -32.61120000     -69.30750000
C      -46.60580000     -32.29080000     -69.31270000
C      -47.60000000     -33.27670000     -69.41550000
C      -47.23140000     -34.65180000     -69.50680000
C      -45.83980000     -34.95160000     -69.42040000
C      -44.88520000     -33.94960000     -69.30950000
H      -44.48540000     -31.84870000     -69.34860000
H      -48.62450000     -32.84130000     -69.34890000
H      -45.57950000     -35.98620000     -69.65140000
H      -43.83110000     -34.21800000     -69.23960000
C      -48.21970000     -35.72510000     -69.71170000
H      -49.07750000     -35.55990000     -69.10290000
H      -47.69910000     -36.69200000     -69.45610000
C      -46.98370000     -30.83990000     -69.10810000
H      -47.92820000     -30.59460000     -69.52120000
H      -47.21730000     -30.59610000     -68.09210000
S      -48.63030000     -35.97070000     -71.47160000
S      -45.79750000     -29.68380000     -69.89590000
C      -46.84420000     -36.05330000     -72.26030000
H      -46.23210000     -36.40830000     -71.44990000
H      -47.02900000     -36.78750000     -73.08980000
C      -45.88320000     -29.89670000     -71.66190000
H      -45.10310000     -29.23990000     -72.03320000
H      -46.90280000     -29.63450000     -72.02190000
C      -45.71950000     -31.38880000     -72.19080000
H      -46.51360000     -31.97780000     -71.75950000
H      -46.02850000     -31.22900000     -73.25840000
C      -46.44600000     -34.69710000     -72.84440000
H      -46.64670000     -33.79840000     -72.30040000
H      -46.97470000     -34.54360000     -73.79400000
C      -44.89420000     -34.69550000     -72.89680000
C      -44.09890000     -35.71560000     -73.28790000
C      -44.15500000     -33.48160000     -72.52720000
H      -44.53700000     -36.63200000     -73.67430000
C      -42.76900000     -33.75330000     -72.53300000
C      -44.45950000     -32.10910000     -72.17910000
C      -43.25430000     -31.43490000     -72.03730000
S      -42.38370000     -35.37490000     -73.19210000
S      -41.73850000     -32.31230000     -72.22290000
H      -43.27160000     -30.39040000     -71.88560000
