40
Properties=species:S:1:pos:R:3 #=T CELL(abcABC):=T 1.889726e+02=T 90.00000=T Traj:=T positionsangstrom=T Step:=T 0=T Bead:=T pbc="F F F"
C      -42.07470000     -32.14160000     -72.49540000
C      -42.93450000     -31.18870000     -72.01730000
C      -44.10480000     -30.90720000     -72.75870000
C      -44.33920000     -31.47350000     -73.99500000
C      -43.37610000     -32.35430000     -74.57850000
C      -42.28220000     -32.70450000     -73.81450000
H      -41.16100000     -32.28440000     -71.91630000
H      -44.92950000     -30.28440000     -72.44350000
H      -43.46810000     -32.64490000     -75.61450000
H      -41.51050000     -33.38980000     -74.20260000
C      -45.57150000     -31.20720000     -74.86150000
H      -45.68970000     -31.96180000     -75.52510000
H      -45.48660000     -30.28030000     -75.48770000
C      -42.66780000     -30.31860000     -70.87600000
H      -41.64440000     -29.90030000     -70.86240000
H      -43.44820000     -29.56550000     -70.81420000
S      -47.18180000     -31.12380000     -73.94320000
S      -42.88460000     -31.23120000     -69.18990000
C      -47.55110000     -32.70510000     -73.07400000
H      -48.57440000     -32.71080000     -72.85230000
H      -47.27960000     -33.49100000     -73.81440000
C      -43.55070000     -32.92540000     -69.69460000
H      -42.83920000     -33.67010000     -69.35730000
H      -43.66160000     -32.91730000     -70.75830000
C      -44.93740000     -33.10410000     -68.89360000
H      -44.82680000     -32.91160000     -67.85250000
H      -45.56220000     -32.30630000     -69.31630000
C      -46.85350000     -32.95840000     -71.68160000
H      -47.22480000     -32.23410000     -70.92350000
H      -45.76850000     -32.81360000     -71.78730000
C      -47.05100000     -34.41610000     -71.24880000
C      -47.76160000     -35.33120000     -71.96880000
C      -46.37420000     -34.99070000     -70.10140000
H      -48.33000000     -35.16410000     -72.89980000
C      -46.82420000     -36.29170000     -69.85060000
C      -45.57020000     -34.49250000     -68.97020000
C      -45.24420000     -35.48100000     -68.03150000
S      -47.75880000     -36.95730000     -71.26800000
S      -46.12140000     -36.95260000     -68.40430000
H      -44.63180000     -35.27310000     -67.10130000
