40
Properties=species:S:1:pos:R:3 #=T CELL(abcABC):=T 1.889726e+02=T 90.00000=T Traj:=T positionsangstrom=T Step:=T 0=T Bead:=T pbc="F F F"
C      -41.85880000     -32.40790000     -72.64680000
C      -42.86740000     -31.63680000     -72.13220000
C      -43.97550000     -31.21220000     -72.98910000
C      -44.03970000     -31.76480000     -74.25050000
C      -43.09020000     -32.67640000     -74.70670000
C      -41.97250000     -32.93560000     -73.95990000
H      -40.98000000     -32.68690000     -71.99490000
H      -44.71680000     -30.40220000     -72.69860000
H      -43.18040000     -33.18740000     -75.61320000
H      -41.34500000     -33.72740000     -74.25250000
C      -45.23260000     -31.53570000     -75.14460000
H      -45.21790000     -32.29580000     -75.94640000
H      -45.11840000     -30.56650000     -75.58360000
C      -42.81400000     -30.80040000     -70.86160000
H      -42.04960000     -30.01400000     -71.01860000
H      -43.78320000     -30.36270000     -70.71040000
S      -46.97470000     -31.41960000     -74.44080000
S      -42.24750000     -31.70280000     -69.32410000
C      -47.47260000     -32.82990000     -73.42640000
H      -48.56470000     -32.69550000     -73.52120000
H      -47.27440000     -33.68170000     -74.02300000
C      -43.29850000     -33.22040000     -69.30200000
H      -42.97010000     -33.80820000     -68.43490000
H      -43.19840000     -33.76460000     -70.21410000
C      -44.85080000     -32.85290000     -69.16840000
H      -45.01650000     -32.26860000     -68.18900000
H      -45.18760000     -32.30350000     -69.95890000
C      -46.87050000     -32.92810000     -72.02840000
H      -47.20040000     -32.10910000     -71.38280000
H      -45.77910000     -32.74520000     -72.15050000
C      -47.20320000     -34.20220000     -71.24490000
C      -48.14540000     -35.12480000     -71.63760000
C      -46.62420000     -34.59630000     -69.94810000
H      -48.80970000     -34.83090000     -72.41550000
C      -47.22660000     -35.76290000     -69.45390000
C      -45.63320000     -34.12750000     -69.05960000
C      -45.50890000     -34.95740000     -67.94160000
S      -48.42240000     -36.44720000     -70.54950000
S      -46.47480000     -36.39780000     -68.06630000
H      -44.73120000     -34.90110000     -67.13140000
