40
Properties=species:S:1:pos:R:3 #=T CELL(abcABC):=T 1.889726e+02=T 90.00000=T Traj:=T positionsangstrom=T Step:=T 0=T Bead:=T pbc="F F F"
C      -42.04600000     -32.25760000     -72.33860000
C      -42.88890000     -31.16350000     -72.07960000
C      -44.04070000     -30.89730000     -72.89600000
C      -44.28750000     -31.63730000     -74.04270000
C      -43.33020000     -32.64830000     -74.41660000
C      -42.29580000     -32.95220000     -73.54850000
H      -41.18520000     -32.54690000     -71.76480000
H      -44.63630000     -30.10270000     -72.51700000
H      -43.44330000     -33.18900000     -75.40330000
H      -41.62500000     -33.86870000     -73.75730000
C      -45.58150000     -31.55410000     -74.96440000
H      -45.69850000     -32.52410000     -75.36540000
H      -45.37100000     -30.86930000     -75.80700000
C      -42.73140000     -30.39240000     -70.78580000
H      -41.91170000     -29.63610000     -70.91450000
H      -43.66170000     -29.91570000     -70.55180000
S      -47.13430000     -31.17690000     -74.15830000
S      -42.26570000     -31.54210000     -69.34130000
C      -47.52130000     -32.86430000     -73.40410000
H      -48.56580000     -32.91770000     -73.40700000
H      -47.09690000     -33.60850000     -74.13640000
C      -43.28170000     -33.08520000     -69.67230000
H      -42.94470000     -33.80960000     -68.88360000
H      -43.06080000     -33.39300000     -70.69470000
C      -44.76260000     -32.95740000     -69.39000000
H      -44.83620000     -32.45570000     -68.39030000
H      -45.25560000     -32.36310000     -70.22920000
C      -46.96370000     -33.03700000     -72.04930000
H      -47.17380000     -32.17600000     -71.38970000
H      -45.85600000     -33.05440000     -72.15280000
C      -47.26390000     -34.36180000     -71.29130000
C      -48.18890000     -35.27230000     -71.68360000
C      -46.58090000     -34.83060000     -70.12160000
H      -48.76110000     -35.24560000     -72.60290000
C      -46.97260000     -36.07880000     -69.73250000
C      -45.48990000     -34.26250000     -69.30450000
C      -45.16360000     -35.08620000     -68.29120000
S      -48.28290000     -36.72660000     -70.60360000
S      -46.16190000     -36.59850000     -68.22390000
H      -44.35030000     -35.02130000     -67.66480000
