40
Properties=species:S:1:pos:R:3 #=T CELL(abcABC):=T 1.889726e+02=T 90.00000=T Traj:=T positionsangstrom=T Step:=T 0=T Bead:=T pbc="F F F"
C      -41.96400000     -32.20680000     -72.55570000
C      -42.89670000     -31.21370000     -72.14960000
C      -44.03630000     -30.96610000     -72.92570000
C      -44.35760000     -31.62970000     -74.12090000
C      -43.50090000     -32.64590000     -74.53750000
C      -42.32100000     -32.89220000     -73.72660000
H      -41.11230000     -32.40780000     -71.94530000
H      -44.75630000     -30.19930000     -72.56660000
H      -43.61240000     -33.27150000     -75.40410000
H      -41.63230000     -33.57860000     -74.26090000
C      -45.53870000     -31.25430000     -74.98000000
H      -45.59120000     -31.89950000     -75.91050000
H      -45.41140000     -30.24860000     -75.31510000
C      -42.69470000     -30.42200000     -70.89410000
H      -41.69930000     -30.03970000     -70.97200000
H      -43.27730000     -29.48330000     -70.79540000
S      -47.10630000     -31.20370000     -73.98230000
S      -42.55910000     -31.32660000     -69.30120000
C      -47.54380000     -32.83600000     -73.20950000
H      -48.55950000     -32.56550000     -72.85750000
H      -47.67080000     -33.66720000     -73.91480000
C      -43.37030000     -32.95770000     -69.39950000
H      -42.89440000     -33.57610000     -68.63110000
H      -43.03590000     -33.50610000     -70.28090000
C      -44.79810000     -32.97600000     -69.15290000
H      -44.99580000     -32.50150000     -68.20190000
H      -45.30580000     -32.42400000     -69.89750000
C      -46.60870000     -33.16470000     -72.05540000
H      -46.62070000     -32.25870000     -71.42750000
H      -45.58710000     -33.27980000     -72.54870000
C      -47.09030000     -34.39660000     -71.29490000
C      -48.07710000     -35.26910000     -71.71640000
C      -46.50600000     -34.82990000     -70.05730000
H      -48.69130000     -35.25560000     -72.55950000
C      -46.98340000     -36.11150000     -69.70900000
C      -45.38270000     -34.38430000     -69.21250000
C      -45.16490000     -35.33650000     -68.25430000
S      -48.24740000     -36.67850000     -70.67770000
S      -46.15940000     -36.81400000     -68.40660000
H      -44.37130000     -35.36730000     -67.57270000
