40
Properties=species:S:1:pos:R:3 #=T CELL(abcABC):=T 1.889726e+02=T 90.00000=T Traj:=T positionsangstrom=T Step:=T 0=T Bead:=T pbc="F F F"
C      -41.96010000     -32.07150000     -72.72430000
C      -42.94800000     -31.26850000     -72.12910000
C      -44.17630000     -31.11150000     -72.82530000
C      -44.44980000     -31.73580000     -74.07430000
C      -43.49230000     -32.60710000     -74.59400000
C      -42.22150000     -32.72910000     -73.93960000
H      -41.01780000     -32.16730000     -72.23640000
H      -44.86910000     -30.30940000     -72.47440000
H      -43.66500000     -33.11220000     -75.53600000
H      -41.58590000     -33.46150000     -74.45950000
C      -45.70970000     -31.38980000     -74.89700000
H      -45.96280000     -32.16720000     -75.72470000
H      -45.53280000     -30.43380000     -75.43290000
C      -42.63640000     -30.43060000     -70.85660000
H      -41.66780000     -29.92110000     -70.91900000
H      -43.39170000     -29.62160000     -70.94980000
S      -47.16960000     -31.04900000     -73.81810000
S      -42.74180000     -31.21280000     -69.19920000
C      -47.33990000     -32.81860000     -73.36230000
H      -48.43120000     -33.03260000     -73.31260000
H      -46.99590000     -33.50700000     -74.15520000
C      -43.47360000     -32.91610000     -69.34040000
H      -42.86010000     -33.46010000     -68.60160000
H      -43.33460000     -33.27400000     -70.35430000
C      -44.92200000     -33.05570000     -68.95500000
H      -45.05340000     -32.57080000     -67.93790000
H      -45.58920000     -32.42620000     -69.54710000
C      -46.57710000     -33.09430000     -72.03050000
H      -46.71910000     -32.33930000     -71.24750000
H      -45.52120000     -33.03570000     -72.13970000
C      -46.89630000     -34.42740000     -71.35680000
C      -47.94900000     -35.19660000     -71.81330000
C      -46.28520000     -34.89880000     -70.13720000
H      -48.54180000     -35.04000000     -72.70360000
C      -46.80340000     -36.23400000     -69.84840000
C      -45.44870000     -34.45100000     -69.04850000
C      -45.24620000     -35.43870000     -68.08890000
S      -48.14950000     -36.68270000     -70.90340000
S      -46.09870000     -36.94970000     -68.42800000
H      -44.87620000     -35.19200000     -67.10460000
