40
Properties=species:S:1:pos:R:3 #=T CELL(abcABC):=T 1.889726e+02=T 90.00000=T Traj:=T positionsangstrom=T Step:=T 0=T Bead:=T pbc="F F F"
C      -42.26520000     -34.87810000     -69.25250000
C      -42.28690000     -34.69230000     -70.67210000
C      -42.36150000     -33.36680000     -71.22390000
C      -42.30110000     -32.28510000     -70.41760000
C      -42.36230000     -32.45780000     -69.00840000
C      -42.49360000     -33.76080000     -68.47930000
H      -42.11020000     -35.82460000     -68.82420000
H      -42.28710000     -33.29030000     -72.24180000
H      -42.46410000     -31.47430000     -68.47440000
H      -42.57480000     -33.86120000     -67.36510000
C      -42.19030000     -30.97460000     -71.13220000
H      -41.07470000     -30.74110000     -71.16880000
H      -42.59460000     -30.19510000     -70.47960000
C      -42.14500000     -35.90490000     -71.56760000
H      -41.73390000     -35.61070000     -72.56930000
H      -41.44180000     -36.65020000     -71.13570000
S      -42.91410000     -30.87120000     -72.88380000
S      -43.75360000     -36.80400000     -71.70040000
C      -44.53850000     -31.74930000     -72.80560000
H      -45.11350000     -31.21260000     -73.58830000
H      -44.46790000     -32.83930000     -73.08660000
C      -45.18640000     -35.64530000     -72.00610000
H      -45.91690000     -36.32870000     -72.47700000
H      -44.96200000     -34.85900000     -72.67670000
C      -45.81510000     -35.04610000     -70.72920000
H      -45.89100000     -35.77110000     -70.05770000
H      -45.19840000     -34.24050000     -70.39050000
C      -45.29370000     -31.57000000     -71.49080000
H      -45.17690000     -30.55240000     -71.15590000
H      -44.84720000     -32.12830000     -70.65810000
C      -46.80500000     -31.84140000     -71.53830000
C      -47.67030000     -30.80250000     -71.77380000
C      -47.47200000     -33.14140000     -71.31700000
H      -47.37040000     -29.77710000     -71.96530000
C      -48.85570000     -32.89980000     -71.37990000
C      -47.14270000     -34.51590000     -71.02560000
C      -48.22800000     -35.36910000     -71.07970000
S      -49.36340000     -31.34730000     -71.79220000
S      -49.67840000     -34.47030000     -71.39360000
H      -48.28980000     -36.21370000     -70.41130000
