40
Properties=species:S:1:pos:R:3 #=T CELL(abcABC):=T 1.889726e+02=T 90.00000=T Traj:=T positionsangstrom=T Step:=T 0=T Bead:=T pbc="F F F"
C      -42.32650000     -34.80640000     -69.32060000
C      -42.17690000     -34.68290000     -70.68990000
C      -41.98160000     -33.44360000     -71.26630000
C      -42.27550000     -32.29280000     -70.46220000
C      -42.37580000     -32.39550000     -69.05170000
C      -42.38690000     -33.63700000     -68.49500000
H      -42.40470000     -35.85760000     -68.83160000
H      -41.82580000     -33.32630000     -72.33180000
H      -42.57290000     -31.57630000     -68.42330000
H      -42.49240000     -33.72600000     -67.47300000
C      -42.19590000     -30.93400000     -71.02220000
H      -41.16740000     -30.76920000     -71.33640000
H      -42.44940000     -30.19820000     -70.26900000
C      -42.16870000     -35.96680000     -71.44850000
H      -41.68130000     -35.78540000     -72.38930000
H      -41.53220000     -36.62000000     -70.79690000
S      -43.11670000     -30.68190000     -72.63560000
S      -43.73300000     -36.92450000     -71.59110000
C      -44.64420000     -31.69640000     -72.49780000
H      -45.28980000     -31.40210000     -73.33530000
H      -44.39980000     -32.78360000     -72.48420000
C      -44.88080000     -35.63150000     -72.25400000
H      -45.71720000     -36.16070000     -72.87880000
H      -44.34270000     -35.07520000     -73.00390000
C      -45.58250000     -34.89100000     -71.03840000
H      -45.80870000     -35.56750000     -70.25780000
H      -45.00060000     -34.15940000     -70.59890000
C      -45.44610000     -31.43550000     -71.16030000
H      -45.20290000     -30.40860000     -70.84940000
H      -45.07660000     -31.99070000     -70.29840000
C      -46.97440000     -31.71320000     -71.23300000
C      -47.95990000     -30.75130000     -71.27850000
C      -47.50530000     -33.03860000     -71.41060000
H      -47.86740000     -29.67800000     -71.24030000
C      -48.87300000     -33.07510000     -71.73850000
C      -46.96230000     -34.38730000     -71.40120000
C      -47.99820000     -35.32560000     -71.53100000
S      -49.60280000     -31.49120000     -71.49780000
S      -49.54860000     -34.69650000     -71.91370000
H      -47.73370000     -36.39940000     -71.35660000
