40
Properties=species:S:1:pos:R:3 #=T CELL(abcABC):=T 1.889726e+02=T 90.00000=T Traj:=T positionsangstrom=T Step:=T 0=T Bead:=T pbc="F F F"
C      -42.42910000     -34.82750000     -69.32690000
C      -42.31330000     -34.73030000     -70.73550000
C      -42.04040000     -33.51270000     -71.34400000
C      -42.08710000     -32.29390000     -70.56890000
C      -42.29870000     -32.39900000     -69.18320000
C      -42.46560000     -33.63180000     -68.56810000
H      -42.69700000     -35.78870000     -68.87960000
H      -42.00260000     -33.34320000     -72.45240000
H      -42.26560000     -31.47510000     -68.62820000
H      -42.53630000     -33.69190000     -67.51880000
C      -42.09940000     -30.96510000     -71.21860000
H      -41.08080000     -30.59640000     -71.37150000
H      -42.65160000     -30.21330000     -70.65080000
C      -42.30270000     -36.06800000     -71.58720000
H      -42.09270000     -35.86670000     -72.64390000
H      -41.56180000     -36.76800000     -71.19740000
S      -42.87640000     -30.92070000     -72.93460000
S      -43.92850000     -36.90910000     -71.66630000
C      -44.66000000     -31.55960000     -72.67280000
H      -45.23590000     -30.96100000     -73.31190000
H      -44.66990000     -32.60600000     -73.03640000
C      -45.00080000     -35.45140000     -71.91590000
H      -45.76800000     -35.73090000     -72.75100000
H      -44.41660000     -34.59040000     -72.25610000
C      -45.78570000     -34.98640000     -70.67050000
H      -45.80240000     -35.73630000     -69.92550000
H      -45.22810000     -34.12360000     -70.11670000
C      -45.31530000     -31.58140000     -71.25390000
H      -45.09860000     -30.66060000     -70.64960000
H      -44.82010000     -32.36700000     -70.69950000
C      -46.78900000     -31.86830000     -71.46800000
C      -47.64110000     -30.83680000     -71.80470000
C      -47.49780000     -33.16440000     -71.33540000
H      -47.46810000     -29.81340000     -71.76630000
C      -48.88040000     -32.95470000     -71.48510000
C      -47.18310000     -34.50980000     -70.99330000
C      -48.26160000     -35.36830000     -70.87720000
S      -49.29930000     -31.31990000     -71.92250000
S      -49.73800000     -34.44110000     -71.21270000
H      -48.21550000     -36.41280000     -70.64870000
