40
Properties=species:S:1:pos:R:3 #=T CELL(abcABC):=T 1.889726e+02=T 90.00000=T Traj:=T positionsangstrom=T Step:=T 0=T Bead:=T pbc="F F F"
C      -42.05270000     -31.72560000     -72.23700000
C      -43.08230000     -30.91580000     -71.63600000
C      -44.23870000     -30.59070000     -72.31710000
C      -44.40720000     -30.92040000     -73.68070000
C      -43.41850000     -31.77800000     -74.25790000
C      -42.26810000     -32.06700000     -73.58320000
H      -41.27370000     -32.17300000     -71.72300000
H      -45.01610000     -29.94170000     -71.91200000
H      -43.44290000     -32.00670000     -75.37220000
H      -41.49060000     -32.67150000     -73.98410000
C      -45.61110000     -30.54890000     -74.48640000
H      -45.48090000     -30.95910000     -75.48900000
H      -45.70190000     -29.44950000     -74.67150000
C      -42.77070000     -30.50070000     -70.21750000
H      -41.74170000     -30.81470000     -69.96180000
H      -42.68610000     -29.40930000     -70.13050000
S      -47.21770000     -31.17600000     -73.84980000
S      -44.11600000     -30.98500000     -68.95800000
C      -46.90510000     -32.98550000     -73.60660000
H      -47.71490000     -33.49260000     -74.17980000
H      -45.93840000     -33.08900000     -74.14630000
C      -44.38350000     -32.75810000     -69.42780000
H      -43.64410000     -33.39030000     -68.88320000
H      -44.37380000     -32.89640000     -70.58020000
C      -45.78820000     -33.08880000     -68.90570000
H      -45.98130000     -32.87350000     -67.85320000
H      -46.44280000     -32.62080000     -69.61170000
C      -46.78280000     -33.34190000     -72.10250000
H      -47.71140000     -32.96140000     -71.58870000
H      -45.96360000     -32.81550000     -71.72120000
C      -46.65480000     -34.83500000     -71.72400000
C      -47.01560000     -35.90490000     -72.53560000
C      -46.41490000     -35.15520000     -70.26860000
H      -47.35390000     -35.87280000     -73.58070000
C      -46.36410000     -36.58780000     -70.15410000
C      -45.99690000     -34.55840000     -69.00600000
C      -45.53050000     -35.54760000     -68.14960000
S      -46.71480000     -37.43860000     -71.63710000
S      -45.62840000     -37.14390000     -68.62240000
H      -45.31310000     -35.21720000     -67.14640000
