40
Properties=species:S:1:pos:R:3 #=T CELL(abcABC):=T 1.889726e+02=T 90.00000=T Traj:=T positionsangstrom=T Step:=T 0=T Bead:=T pbc="F F F"
C      -43.13680000     -33.84940000     -68.97790000
C      -44.04420000     -32.84160000     -68.55120000
C      -43.79060000     -31.55820000     -69.03360000
C      -42.70290000     -31.30510000     -69.94800000
C      -41.76220000     -32.22950000     -70.21430000
C      -41.93890000     -33.50060000     -69.68980000
H      -43.33480000     -34.95510000     -68.76260000
H      -44.42150000     -30.77090000     -68.57940000
H      -40.83220000     -32.05820000     -70.76390000
H      -41.11440000     -34.28940000     -69.79770000
C      -42.68180000     -29.92070000     -70.60070000
H      -41.76780000     -29.76220000     -71.26730000
H      -42.74560000     -29.13710000     -69.82370000
C      -45.16950000     -33.06940000     -67.47870000
H      -45.12990000     -34.15280000     -67.17490000
H      -44.95340000     -32.43910000     -66.64520000
S      -44.21890000     -29.74900000     -71.82180000
S      -46.76150000     -32.73100000     -68.29030000
C      -44.27280000     -31.36670000     -72.75890000
H      -44.30090000     -30.99760000     -73.87700000
H      -43.41480000     -31.92320000     -72.52290000
C      -46.83220000     -34.13250000     -69.48420000
H      -46.97850000     -35.11680000     -69.00290000
H      -45.87040000     -34.15290000     -69.89910000
C      -47.94660000     -33.84530000     -70.53210000
H      -48.93010000     -34.11680000     -70.19530000
H      -47.91830000     -32.80610000     -70.69230000
C      -45.54180000     -32.11270000     -72.48580000
H      -46.41680000     -31.43010000     -72.74090000
H      -45.66430000     -32.31300000     -71.37840000
C      -45.67600000     -33.49620000     -73.20610000
C      -44.80960000     -33.96460000     -74.12760000
C      -46.63890000     -34.49270000     -72.79510000
H      -44.06620000     -33.35200000     -74.67430000
C      -46.53350000     -35.66850000     -73.63870000
C      -47.68460000     -34.70880000     -71.82890000
C      -48.29430000     -35.89370000     -71.90320000
S      -45.22210000     -35.53210000     -74.69080000
S      -47.57000000     -36.94570000     -73.13710000
H      -49.08590000     -36.29000000     -71.29010000
