40
Properties=species:S:1:pos:R:3 #=T CELL(abcABC):=T 1.889726e+02=T 90.00000=T Traj:=T positionsangstrom=T Step:=T 0=T Bead:=T pbc="F F F"
C      -46.08020000     -35.52440000     -74.64930000
C      -46.61830000     -35.84800000     -73.42650000
C      -45.79310000     -36.33120000     -72.39010000
C      -44.43610000     -36.35720000     -72.53330000
C      -43.86950000     -36.14070000     -73.83640000
C      -44.70690000     -35.77470000     -74.84880000
H      -46.63370000     -35.24270000     -75.51600000
H      -46.27390000     -36.53840000     -71.45580000
H      -42.76190000     -36.27190000     -73.99960000
H      -44.16280000     -35.55170000     -75.78390000
C      -43.51880000     -36.72840000     -71.38450000
H      -43.12770000     -37.74720000     -71.40400000
H      -44.17520000     -36.63940000     -70.50700000
C      -48.10040000     -35.54260000     -73.28250000
H      -48.50720000     -35.62180000     -74.36180000
H      -48.65760000     -36.34040000     -72.78890000
S      -42.04780000     -35.58710000     -71.23500000
S      -48.58960000     -33.94350000     -72.42800000
C      -42.90160000     -33.93950000     -71.18620000
H      -42.34110000     -33.28950000     -71.85380000
H      -43.90360000     -34.04380000     -71.63510000
C      -47.90950000     -34.24170000     -70.71420000
H      -47.98200000     -35.35320000     -70.62130000
H      -48.61420000     -33.77680000     -69.94800000
C      -46.48270000     -33.72140000     -70.54310000
H      -45.91120000     -34.27280000     -69.75990000
H      -45.94860000     -34.18670000     -71.36810000
C      -43.08940000     -33.32530000     -69.80700000
H      -42.23750000     -33.23960000     -69.15140000
H      -43.76830000     -34.01730000     -69.28190000
C      -43.78460000     -31.95430000     -69.77650000
C      -43.01590000     -30.89290000     -69.34360000
C      -45.12590000     -31.60260000     -70.09860000
H      -41.99930000     -31.05890000     -69.09740000
C      -45.35180000     -30.18850000     -69.79940000
C      -46.38150000     -32.24360000     -70.39190000
C      -47.46270000     -31.39460000     -70.49530000
S      -43.90930000     -29.39590000     -69.24610000
S      -47.01870000     -29.77350000     -70.17880000
H      -48.53240000     -31.56860000     -70.83170000
