40
Properties=species:S:1:pos:R:3 #=T CELL(abcABC):=T 1.889726e+02=T 90.00000=T Traj:=T positionsangstrom=T Step:=T 0=T Bead:=T pbc="F F F"
C      -41.59180000     -31.22610000     -72.31320000
C      -42.80590000     -30.64590000     -71.90870000
C      -43.92280000     -30.61890000     -72.77990000
C      -43.92810000     -31.38290000     -73.97030000
C      -42.67860000     -31.85100000     -74.43000000
C      -41.52170000     -31.70040000     -73.62660000
H      -40.72430000     -31.18910000     -71.63390000
H      -44.78240000     -30.13560000     -72.34870000
H      -42.65390000     -32.36800000     -75.34800000
H      -40.56470000     -32.04510000     -74.04720000
C      -45.20300000     -31.53410000     -74.75030000
H      -45.18630000     -32.51610000     -75.32860000
H      -45.36950000     -30.79360000     -75.48730000
C      -42.93940000     -29.92850000     -70.60550000
H      -42.04680000     -29.83270000     -70.11060000
H      -43.29970000     -28.91140000     -70.86260000
S      -46.70240000     -31.44450000     -73.74210000
S      -44.22960000     -30.71120000     -69.32200000
C      -46.50250000     -33.09250000     -72.83680000
H      -46.68120000     -33.84250000     -73.61600000
H      -45.42210000     -33.13220000     -72.45140000
C      -44.24740000     -32.53360000     -69.71560000
H      -43.30390000     -32.96580000     -69.39580000
H      -44.34060000     -32.63960000     -70.76900000
C      -45.45510000     -33.13530000     -68.96690000
H      -45.35070000     -32.97030000     -67.93990000
H      -46.29610000     -32.49750000     -69.19230000
C      -47.60090000     -33.31310000     -71.69790000
H      -48.61310000     -33.19900000     -72.13800000
H      -47.52590000     -32.55750000     -70.89820000
C      -47.55020000     -34.76180000     -71.23600000
C      -48.20750000     -35.79840000     -71.80000000
C      -46.59690000     -35.21120000     -70.20130000
H      -48.91650000     -35.87120000     -72.60820000
C      -46.69360000     -36.61250000     -70.01780000
C      -45.76300000     -34.57690000     -69.16800000
C      -45.13120000     -35.59340000     -68.41540000
S      -47.71840000     -37.43620000     -71.17780000
S      -45.59210000     -37.25470000     -68.79290000
H      -44.23720000     -35.40800000     -67.68220000
