40
Properties=species:S:1:pos:R:3 #=T CELL(abcABC):=T 1.889726e+02=T 90.00000=T Traj:=T positionsangstrom=T Step:=T 0=T Bead:=T pbc="F F F"
C      -41.71720000     -31.69390000     -71.90920000
C      -42.74110000     -30.76630000     -71.63370000
C      -43.77820000     -30.53070000     -72.60440000
C      -43.87330000     -31.25280000     -73.84220000
C      -42.82340000     -32.19340000     -74.04140000
C      -41.81300000     -32.35710000     -73.11550000
H      -40.82850000     -31.84540000     -71.29520000
H      -44.72410000     -30.02380000     -72.32910000
H      -42.71120000     -32.65780000     -75.00380000
H      -41.03220000     -33.03360000     -73.47120000
C      -45.05320000     -31.34340000     -74.78570000
H      -45.00910000     -32.22310000     -75.51070000
H      -45.04540000     -30.41260000     -75.42490000
C      -42.77480000     -30.06410000     -70.32480000
H      -41.87240000     -30.24080000     -69.77730000
H      -42.86680000     -28.94190000     -70.45680000
S      -46.70400000     -31.49190000     -73.91430000
S      -44.22120000     -30.60990000     -69.27580000
C      -46.52670000     -33.17060000     -73.11350000
H      -46.55440000     -33.94350000     -73.88250000
H      -45.60480000     -33.24910000     -72.55400000
C      -44.44110000     -32.35400000     -69.81870000
H      -43.48150000     -32.92200000     -69.62490000
H      -44.67620000     -32.32980000     -70.92320000
C      -45.61820000     -33.01160000     -69.05400000
H      -45.42030000     -32.79730000     -68.03860000
H      -46.55380000     -32.38460000     -69.21780000
C      -47.60290000     -33.42350000     -72.09510000
H      -48.54340000     -33.18510000     -72.54870000
H      -47.42480000     -32.67640000     -71.32080000
C      -47.55710000     -34.82110000     -71.40310000
C      -48.22990000     -35.91950000     -71.82600000
C      -46.66420000     -35.10550000     -70.28670000
H      -48.79750000     -35.99890000     -72.78550000
C      -46.65780000     -36.46420000     -70.05430000
C      -45.75980000     -34.45790000     -69.40770000
C      -45.02230000     -35.37190000     -68.62840000
S      -47.78970000     -37.34600000     -71.03900000
S      -45.40660000     -37.07400000     -68.98000000
H      -44.26540000     -34.99370000     -68.04710000
