40
Properties=species:S:1:pos:R:3 #=T CELL(abcABC):=T 1.889726e+02=T 90.00000=T Traj:=T positionsangstrom=T Step:=T 0=T Bead:=T pbc="F F F"
C      -42.04340000     -31.57260000     -71.88620000
C      -43.00170000     -30.59070000     -71.73810000
C      -44.00390000     -30.45930000     -72.73010000
C      -44.02140000     -31.30030000     -73.84980000
C      -43.08720000     -32.33040000     -73.91140000
C      -42.01110000     -32.34170000     -72.98840000
H      -41.31670000     -31.70580000     -71.09050000
H      -44.79040000     -29.69350000     -72.65550000
H      -43.06360000     -33.06320000     -74.74740000
H      -41.15020000     -33.05200000     -73.08810000
C      -45.25200000     -31.29750000     -74.73200000
H      -45.09900000     -32.10860000     -75.49100000
H      -45.33270000     -30.27510000     -75.22350000
C      -42.91520000     -29.94690000     -70.42710000
H      -41.88440000     -30.03340000     -70.03960000
H      -43.19510000     -28.92260000     -70.40350000
S      -46.85620000     -31.40860000     -73.82480000
S      -44.03000000     -30.67230000     -69.25440000
C      -46.55970000     -33.08640000     -73.00960000
H      -46.45860000     -33.85990000     -73.77800000
H      -45.66330000     -32.95730000     -72.34570000
C      -44.05910000     -32.46390000     -69.60750000
H      -43.31240000     -32.98250000     -68.96840000
H      -43.82730000     -32.64650000     -70.66290000
C      -45.41880000     -33.04160000     -69.15430000
H      -45.51730000     -32.66570000     -68.11750000
H      -46.11370000     -32.57610000     -69.81650000
C      -47.64750000     -33.46200000     -71.96970000
H      -48.59640000     -33.38100000     -72.53900000
H      -47.65060000     -32.84760000     -71.12070000
C      -47.40550000     -34.87660000     -71.48080000
C      -47.95390000     -35.90430000     -72.11590000
C      -46.49150000     -35.18460000     -70.33810000
H      -48.76490000     -35.84220000     -72.87610000
C      -46.49540000     -36.55070000     -70.17080000
C      -45.65880000     -34.49510000     -69.37530000
C      -45.17250000     -35.37850000     -68.41220000
S      -47.45490000     -37.41770000     -71.41540000
S      -45.54340000     -37.03710000     -68.78880000
H      -44.72980000     -35.02520000     -67.45390000
