40
Properties=species:S:1:pos:R:3 #=T CELL(abcABC):=T 1.889726e+02=T 90.00000=T Traj:=T positionsangstrom=T Step:=T 0=T Bead:=T pbc="F F F"
C      -44.29350000     -30.80530000     -67.84310000
C      -44.87850000     -32.06170000     -67.72910000
C      -44.19760000     -33.14450000     -68.30600000
C      -43.00590000     -33.00070000     -69.04960000
C      -42.51910000     -31.71000000     -69.24520000
C      -43.19530000     -30.66970000     -68.64290000
H      -44.79680000     -29.95090000     -67.43560000
H      -44.58410000     -34.22600000     -68.29230000
H      -41.69780000     -31.33860000     -69.83280000
H      -42.79110000     -29.69750000     -68.78060000
C      -42.15990000     -34.17830000     -69.52550000
H      -41.90910000     -34.73050000     -68.57460000
H      -41.17050000     -33.88590000     -69.86040000
C      -46.24630000     -32.35980000     -67.16150000
H      -46.33340000     -33.35040000     -66.66620000
H      -46.56850000     -31.73280000     -66.28780000
S      -43.19710000     -35.34080000     -70.48800000
S      -47.60380000     -32.31390000     -68.37970000
C      -42.84760000     -35.12340000     -72.25360000
H      -41.81390000     -35.19550000     -72.32600000
H      -43.32910000     -35.95870000     -72.76590000
C      -47.12570000     -33.58130000     -69.69900000
H      -48.09800000     -33.90570000     -70.05700000
H      -46.63950000     -34.40670000     -69.18570000
C      -46.23510000     -33.03380000     -70.84350000
H      -45.99540000     -31.99610000     -70.72990000
H      -45.27190000     -33.45260000     -70.71900000
C      -43.31440000     -33.79440000     -72.91600000
H      -42.53070000     -33.43210000     -73.51550000
H      -43.27890000     -33.11210000     -72.16600000
C      -44.56690000     -33.87490000     -73.73370000
C      -44.33910000     -34.12930000     -75.05930000
C      -45.98000000     -33.72500000     -73.36520000
H      -43.39770000     -34.28170000     -75.55600000
C      -46.74630000     -34.04540000     -74.47720000
C      -46.75440000     -33.21590000     -72.24280000
C      -48.09550000     -33.22560000     -72.51500000
S      -45.90560000     -34.26780000     -75.93190000
S      -48.42070000     -33.64780000     -74.27420000
H      -48.87190000     -33.05860000     -71.80480000
