40
Properties=species:S:1:pos:R:3 #=T CELL(abcABC):=T 1.889726e+02=T 90.00000=T Traj:=T positionsangstrom=T Step:=T 0=T Bead:=T pbc="F F F"
C      -44.40880000     -31.08220000     -67.84410000
C      -44.88990000     -32.39510000     -67.79010000
C      -44.09430000     -33.45440000     -68.26570000
C      -42.78020000     -33.24720000     -68.73520000
C      -42.30980000     -31.92220000     -68.81360000
C      -43.10640000     -30.88250000     -68.33160000
H      -45.00620000     -30.22780000     -67.54410000
H      -44.44350000     -34.43780000     -68.20480000
H      -41.30810000     -31.71200000     -69.23480000
H      -42.75970000     -29.83250000     -68.39020000
C      -41.97540000     -34.45830000     -69.26570000
H      -41.80950000     -35.25400000     -68.58640000
H      -41.10800000     -34.17680000     -69.87010000
C      -46.27540000     -32.73030000     -67.25760000
H      -46.32210000     -33.70630000     -66.78120000
H      -46.28180000     -31.96130000     -66.50910000
S      -43.11480000     -35.31960000     -70.51020000
S      -47.74860000     -32.40950000     -68.39290000
C      -42.80740000     -34.64630000     -72.25060000
H      -41.77770000     -34.71330000     -72.45120000
H      -43.08760000     -35.40380000     -72.95400000
C      -47.53970000     -33.63170000     -69.81900000
H      -48.57760000     -33.71940000     -70.14880000
H      -47.21550000     -34.56310000     -69.34140000
C      -46.62260000     -33.03590000     -70.88540000
H      -46.46860000     -31.99210000     -70.68160000
H      -45.66590000     -33.56570000     -70.74410000
C      -43.48370000     -33.31430000     -72.62650000
H      -42.68840000     -32.81380000     -73.19930000
H      -43.76840000     -32.74980000     -71.68950000
C      -44.57820000     -33.55050000     -73.65420000
C      -44.19820000     -33.76260000     -74.94970000
C      -46.03730000     -33.46910000     -73.46710000
H      -43.16720000     -33.71120000     -75.37000000
C      -46.68920000     -33.74270000     -74.71050000
C      -46.99900000     -33.31830000     -72.32650000
C      -48.26730000     -33.41900000     -72.77980000
S      -45.56510000     -34.02890000     -75.96970000
S      -48.43960000     -33.66680000     -74.53790000
H      -49.16660000     -33.23060000     -72.09080000
