40
Properties=species:S:1:pos:R:3 #=T CELL(abcABC):=T 1.889726e+02=T 90.00000=T Traj:=T positionsangstrom=T Step:=T 0=T Bead:=T pbc="F F F"
C      -46.09670000     -35.46100000     -74.61840000
C      -46.69180000     -35.88380000     -73.39630000
C      -45.86170000     -36.32960000     -72.38920000
C      -44.42730000     -36.31060000     -72.52320000
C      -43.84730000     -35.94440000     -73.78170000
C      -44.73190000     -35.35790000     -74.80260000
H      -46.73610000     -35.00140000     -75.38160000
H      -46.32230000     -36.62870000     -71.44530000
H      -42.71450000     -35.85870000     -74.04070000
H      -44.42900000     -35.08560000     -75.76810000
C      -43.55150000     -36.73140000     -71.39380000
H      -43.08550000     -37.68010000     -71.60620000
H      -44.17120000     -36.87860000     -70.45940000
C      -48.16780000     -35.86010000     -73.05370000
H      -48.74720000     -35.87350000     -73.90750000
H      -48.37810000     -36.62370000     -72.30990000
S      -42.20690000     -35.61760000     -71.15130000
S      -48.69760000     -34.23350000     -72.33190000
C      -42.83990000     -33.83560000     -71.32160000
H      -42.02590000     -33.28970000     -71.72550000
H      -43.63570000     -33.74550000     -72.11800000
C      -47.82780000     -34.34220000     -70.72530000
H      -47.72030000     -35.35330000     -70.47790000
H      -48.60720000     -34.00120000     -70.08580000
C      -46.42650000     -33.74490000     -70.61690000
H      -45.93050000     -34.10550000     -69.71150000
H      -45.80510000     -33.97790000     -71.48260000
C      -43.09700000     -33.30330000     -69.94710000
H      -42.10830000     -33.38540000     -69.44260000
H      -43.80900000     -33.93240000     -69.34010000
C      -43.63510000     -31.85710000     -70.00530000
C      -42.92820000     -30.77750000     -69.56250000
C      -45.04920000     -31.55560000     -70.15080000
H      -41.89890000     -30.85970000     -69.24760000
C      -45.28360000     -30.20740000     -69.80170000
C      -46.35330000     -32.22910000     -70.52840000
C      -47.42750000     -31.39730000     -70.46860000
S      -43.86640000     -29.35390000     -69.35960000
S      -46.96650000     -29.75560000     -70.03050000
H      -48.52500000     -31.60480000     -70.73350000
