40
Properties=species:S:1:pos:R:3 #=T CELL(abcABC):=T 1.889726e+02=T 90.00000=T Traj:=T positionsangstrom=T Step:=T 0=T Bead:=T pbc="F F F"
C      -41.83600000     -31.61950000     -72.00010000
C      -42.91230000     -30.79040000     -71.63420000
C      -43.90800000     -30.57820000     -72.63780000
C      -44.03000000     -31.39400000     -73.77980000
C      -43.00410000     -32.33010000     -73.99290000
C      -41.93870000     -32.44820000     -73.09810000
H      -40.95490000     -31.83280000     -71.37540000
H      -44.62840000     -29.78480000     -72.56020000
H      -43.22520000     -33.08480000     -74.73020000
H      -41.17680000     -33.28790000     -73.24820000
C      -45.16390000     -31.14320000     -74.77630000
H      -45.15810000     -31.89910000     -75.53940000
H      -45.09640000     -30.23430000     -75.27470000
C      -43.06490000     -29.87200000     -70.43230000
H      -42.08160000     -29.59040000     -70.10090000
H      -43.56030000     -28.93870000     -70.85080000
S      -46.72030000     -31.45600000     -73.82710000
S      -44.10190000     -30.61170000     -69.16560000
C      -46.49690000     -33.18370000     -73.07500000
H      -46.62300000     -33.91680000     -73.89370000
H      -45.41370000     -33.27870000     -72.92680000
C      -44.33470000     -32.39330000     -69.70100000
H      -43.54120000     -32.97680000     -69.25850000
H      -44.17950000     -32.51530000     -70.75960000
C      -45.62840000     -32.96970000     -69.15670000
H      -45.86040000     -32.69960000     -68.12230000
H      -46.57990000     -32.61980000     -69.64510000
C      -47.55670000     -33.42640000     -72.02440000
H      -48.61660000     -33.28840000     -72.39840000
H      -47.45600000     -32.62800000     -71.28440000
C      -47.44010000     -34.83620000     -71.45230000
C      -48.07640000     -35.85680000     -72.03230000
C      -46.48650000     -35.18230000     -70.35650000
H      -48.89820000     -35.71720000     -72.82010000
C      -46.53760000     -36.52340000     -70.13920000
C      -45.62010000     -34.48620000     -69.40420000
C      -44.98930000     -35.42350000     -68.57570000
S      -47.62060000     -37.34680000     -71.19900000
S      -45.48060000     -37.06530000     -68.88020000
H      -44.25000000     -35.04360000     -67.92180000
