40
Properties=species:S:1:pos:R:3 #=T CELL(abcABC):=T 1.889726e+02=T 90.00000=T Traj:=T positionsangstrom=T Step:=T 0=T Bead:=T pbc="F F F"
C      -44.15480000     -30.52200000     -68.88500000
C      -44.59030000     -31.79000000     -68.35530000
C      -43.85460000     -32.88030000     -68.64320000
C      -42.69810000     -32.85480000     -69.45930000
C      -42.30740000     -31.58530000     -69.92730000
C      -43.05010000     -30.47610000     -69.70260000
H      -44.58990000     -29.64350000     -68.44680000
H      -44.14350000     -33.81510000     -68.25840000
H      -41.37440000     -31.42180000     -70.44430000
H      -42.64470000     -29.52550000     -70.06240000
C      -41.93020000     -34.13300000     -69.63890000
H      -41.54320000     -34.58530000     -68.74890000
H      -41.05330000     -33.88440000     -70.25300000
C      -45.81320000     -31.99120000     -67.45870000
H      -45.55480000     -32.50880000     -66.54720000
H      -46.03720000     -30.97240000     -67.10030000
S      -42.98560000     -35.38630000     -70.47770000
S      -47.44860000     -32.56000000     -68.15990000
C      -42.80070000     -34.75990000     -72.20560000
H      -41.69570000     -34.55520000     -72.38610000
H      -43.12580000     -35.60260000     -72.82360000
C      -46.92120000     -33.75830000     -69.49560000
H      -47.85960000     -34.37210000     -69.73250000
H      -46.18990000     -34.44180000     -69.07690000
C      -46.48690000     -32.85000000     -70.65080000
H      -46.87530000     -31.87630000     -70.50810000
H      -45.48950000     -32.76710000     -70.55820000
C      -43.61680000     -33.56620000     -72.57680000
H      -43.02720000     -32.81140000     -72.99730000
H      -43.93170000     -33.14740000     -71.63750000
C      -44.77100000     -33.90180000     -73.50740000
C      -44.59120000     -34.41270000     -74.77780000
C      -46.17960000     -33.79940000     -73.17550000
H      -43.66550000     -34.47990000     -75.33990000
C      -47.07100000     -34.16150000     -74.21340000
C      -46.91200000     -33.27000000     -71.99920000
C      -48.25130000     -33.21190000     -72.23800000
S      -46.17900000     -34.66810000     -75.64520000
S      -48.74170000     -33.75990000     -73.86300000
H      -48.99830000     -32.62890000     -71.72310000
