40
Properties=species:S:1:pos:R:3 #=T CELL(abcABC):=T 1.889726e+02=T 90.00000=T Traj:=T positionsangstrom=T Step:=T 0=T Bead:=T pbc="F F F"
C      -41.99280000     -31.80450000     -73.13570000
C      -42.78260000     -31.03290000     -72.28300000
C      -44.08600000     -30.77600000     -72.67280000
C      -44.61810000     -31.35080000     -73.88390000
C      -43.77990000     -32.16060000     -74.62320000
C      -42.46360000     -32.47060000     -74.20820000
H      -40.96690000     -31.98170000     -72.80210000
H      -44.66560000     -30.17160000     -72.01470000
H      -44.02710000     -32.63790000     -75.52440000
H      -41.89140000     -33.09710000     -74.73760000
C      -46.03310000     -31.10900000     -74.37460000
H      -46.44350000     -31.75280000     -75.12600000
H      -45.87610000     -30.14130000     -74.94770000
C      -42.19830000     -30.60120000     -71.02660000
H      -41.24050000     -31.05830000     -70.84180000
H      -42.07690000     -29.53820000     -71.05880000
S      -47.30130000     -30.88780000     -73.12620000
S      -43.26780000     -31.07680000     -69.61750000
C      -47.83200000     -32.49590000     -72.42660000
H      -48.92860000     -32.43620000     -72.25100000
H      -47.60410000     -33.26920000     -73.20310000
C      -43.51120000     -32.85940000     -69.98630000
H      -42.61000000     -33.44980000     -69.85780000
H      -43.75000000     -32.88750000     -71.05090000
C      -44.68070000     -33.34250000     -69.18480000
H      -44.42000000     -33.42970000     -68.13630000
H      -45.49120000     -32.66260000     -69.27900000
C      -47.21140000     -32.91520000     -71.11340000
H      -47.36900000     -32.25450000     -70.29740000
H      -46.14310000     -32.87550000     -71.23740000
C      -47.43290000     -34.40090000     -70.67810000
C      -48.39860000     -35.26050000     -71.08630000
C      -46.41280000     -35.12440000     -70.01430000
H      -49.18160000     -34.96340000     -71.71030000
C      -46.56500000     -36.49540000     -69.88770000
C      -45.10340000     -34.79230000     -69.46900000
C      -44.36550000     -35.89670000     -69.10580000
S      -48.03350000     -36.93170000     -70.71730000
S      -45.19550000     -37.38440000     -69.26960000
H      -43.31970000     -35.91750000     -68.87610000
