40
Properties=species:S:1:pos:R:3 #=T CELL(abcABC):=T 1.889726e+02=T 90.00000=T Traj:=T positionsangstrom=T Step:=T 0=T Bead:=T pbc="F F F"
C      -41.68120000     -33.02780000     -68.11530000
C      -42.23590000     -32.33830000     -69.22720000
C      -42.39990000     -33.02890000     -70.43980000
C      -42.04670000     -34.36970000     -70.48120000
C      -41.56870000     -35.03050000     -69.38910000
C      -41.41230000     -34.42590000     -68.16780000
H      -41.54460000     -32.42930000     -67.21860000
H      -42.88770000     -32.58390000     -71.27530000
H      -41.34420000     -36.15420000     -69.35050000
H      -41.00540000     -34.95850000     -67.38660000
C      -42.16470000     -35.27860000     -71.69510000
H      -41.99120000     -36.29260000     -71.37620000
H      -41.33970000     -34.97870000     -72.34960000
C      -42.97340000     -31.02340000     -69.04660000
H      -42.45060000     -30.40510000     -68.33340000
H      -43.11240000     -30.35140000     -69.88740000
S      -43.77450000     -35.02800000     -72.62570000
S      -44.72110000     -31.27920000     -68.38170000
C      -44.88630000     -36.10060000     -71.54740000
H      -45.14420000     -37.11950000     -72.05220000
H      -44.30400000     -36.40700000     -70.74280000
C      -45.65670000     -31.29930000     -70.05290000
H      -44.96440000     -31.85240000     -70.66890000
H      -45.72500000     -30.23920000     -70.31710000
C      -46.99340000     -31.98090000     -70.10310000
H      -47.02390000     -32.86750000     -69.58150000
H      -47.75970000     -31.32030000     -69.63350000
C      -46.02320000     -35.24440000     -71.03750000
H      -45.53220000     -34.48270000     -70.48750000
H      -46.65800000     -35.86420000     -70.28360000
C      -46.83940000     -34.62790000     -72.14990000
C      -47.17810000     -35.41630000     -73.22580000
C      -47.50570000     -33.34240000     -72.26660000
H      -46.77190000     -36.40680000     -73.38210000
C      -48.19250000     -33.22630000     -73.44800000
C      -47.53320000     -32.10300000     -71.49530000
C      -48.31340000     -31.17470000     -72.13950000
S      -48.08210000     -34.61350000     -74.50500000
S      -48.92220000     -31.66640000     -73.73250000
H      -48.34620000     -30.20550000     -71.69870000
