40
Properties=species:S:1:pos:R:3 #=T CELL(abcABC):=T 1.889726e+02=T 90.00000=T Traj:=T positionsangstrom=T Step:=T 0=T Bead:=T pbc="F F F"
C      -41.94570000     -31.68830000     -73.02030000
C      -42.91350000     -30.99330000     -72.24440000
C      -44.22290000     -30.83380000     -72.76440000
C      -44.57940000     -31.25190000     -74.03480000
C      -43.58450000     -31.97700000     -74.72440000
C      -42.30680000     -32.20850000     -74.28550000
H      -40.96750000     -31.97130000     -72.67370000
H      -45.00800000     -30.29200000     -72.18480000
H      -43.81110000     -32.33880000     -75.75950000
H      -41.65110000     -32.77210000     -74.96870000
C      -45.95080000     -30.98270000     -74.59050000
H      -46.16690000     -31.88840000     -75.19300000
H      -46.14360000     -30.04570000     -75.11360000
C      -42.43350000     -30.64040000     -70.87290000
H      -41.42180000     -30.96600000     -70.69900000
H      -42.32120000     -29.55220000     -70.80320000
S      -47.19680000     -30.85680000     -73.21700000
S      -43.53830000     -31.07100000     -69.42760000
C      -47.36750000     -32.60100000     -72.66140000
H      -48.33610000     -32.82280000     -73.00110000
H      -46.78490000     -33.14150000     -73.31740000
C      -43.71140000     -32.82980000     -69.73150000
H      -42.68070000     -33.26450000     -69.63590000
H      -44.02120000     -32.90650000     -70.82310000
C      -44.70460000     -33.49260000     -68.83370000
H      -44.31200000     -33.61190000     -67.82660000
H      -45.61780000     -32.89530000     -68.74170000
C      -47.08760000     -32.90400000     -71.18070000
H      -47.61540000     -32.26640000     -70.46600000
H      -46.02260000     -32.67420000     -71.03340000
C      -47.21420000     -34.37070000     -70.86880000
C      -48.08650000     -35.27030000     -71.46230000
C      -46.37050000     -35.16960000     -69.99710000
H      -48.90040000     -35.16730000     -72.14500000
C      -46.52650000     -36.54690000     -70.03720000
C      -45.22080000     -34.85720000     -69.16210000
C      -44.59820000     -35.98640000     -68.65190000
S      -47.87640000     -36.93420000     -71.07340000
S      -45.43190000     -37.52230000     -69.05460000
H      -44.08020000     -36.04460000     -67.66400000
