40
Properties=species:S:1:pos:R:3 #=T CELL(abcABC):=T 1.889726e+02=T 90.00000=T Traj:=T positionsangstrom=T Step:=T 0=T Bead:=T pbc="F F F"
C      -46.31970000     -35.34030000     -74.43900000
C      -46.78480000     -35.97950000     -73.28820000
C      -45.80530000     -36.50100000     -72.32140000
C      -44.41900000     -36.25910000     -72.50570000
C      -44.02900000     -35.55760000     -73.68370000
C      -44.92290000     -35.19150000     -74.65130000
H      -47.07480000     -34.90510000     -75.08880000
H      -46.10360000     -36.94350000     -71.38010000
H      -43.00580000     -35.41320000     -73.79170000
H      -44.72670000     -34.58940000     -75.59550000
C      -43.52720000     -36.70500000     -71.46600000
H      -43.17730000     -37.73010000     -71.68190000
H      -44.11510000     -36.81580000     -70.55630000
C      -48.22630000     -36.08140000     -72.89980000
H      -48.97650000     -36.28390000     -73.65520000
H      -48.38860000     -36.81800000     -72.13170000
S      -42.20120000     -35.55380000     -71.20200000
S      -48.81200000     -34.41630000     -72.19920000
C      -42.84400000     -33.78460000     -71.17530000
H      -42.13520000     -33.10860000     -71.70650000
H      -43.70660000     -33.80950000     -71.79610000
C      -47.74660000     -34.36850000     -70.63740000
H      -47.72790000     -35.36390000     -70.30030000
H      -48.25440000     -33.86430000     -69.83720000
C      -46.37420000     -33.73850000     -70.77200000
H      -45.61960000     -34.30550000     -70.21920000
H      -45.99550000     -33.73790000     -71.78370000
C      -43.17080000     -33.27090000     -69.78770000
H      -42.24400000     -33.25340000     -69.10890000
H      -43.90560000     -33.91670000     -69.33460000
C      -43.65030000     -31.91120000     -69.87310000
C      -42.83510000     -30.81700000     -69.77280000
C      -45.01930000     -31.52430000     -70.11140000
H      -41.75980000     -30.68530000     -69.60840000
C      -45.21530000     -30.13450000     -70.17350000
C      -46.27600000     -32.26780000     -70.34800000
C      -47.33100000     -31.46030000     -70.26620000
S      -43.71220000     -29.32230000     -69.76400000
S      -46.89850000     -29.77660000     -70.09450000
H      -48.33300000     -31.70230000     -70.31330000
