40
Properties=species:S:1:pos:R:3 #=T CELL(abcABC):=T 1.889726e+02=T 90.00000=T Traj:=T positionsangstrom=T Step:=T 0=T Bead:=T pbc="F F F"
C      -42.17470000     -32.05680000     -73.34810000
C      -42.93010000     -31.16180000     -72.53660000
C      -44.30500000     -30.99360000     -72.76830000
C      -44.90810000     -31.70130000     -73.81270000
C      -44.19940000     -32.70990000     -74.45780000
C      -42.82340000     -32.85920000     -74.28790000
H      -41.11520000     -32.12950000     -73.20030000
H      -44.99640000     -30.28270000     -72.30580000
H      -44.73230000     -33.36860000     -75.17100000
H      -42.26760000     -33.61320000     -74.88210000
C      -46.23610000     -31.30640000     -74.31500000
H      -46.51070000     -32.17170000     -75.01780000
H      -46.20830000     -30.52440000     -75.03130000
C      -42.17720000     -30.47060000     -71.39940000
H      -41.12950000     -30.68180000     -71.57620000
H      -42.35760000     -29.41540000     -71.28120000
S      -47.47480000     -30.72570000     -73.04120000
S      -42.67800000     -31.20260000     -69.68620000
C      -47.99990000     -32.26010000     -72.27350000
H      -49.02890000     -32.11410000     -71.85690000
H      -47.91400000     -33.07710000     -73.04490000
C      -43.34660000     -32.85940000     -70.18880000
H      -42.54970000     -33.56740000     -70.21410000
H      -43.80860000     -32.88110000     -71.11570000
C      -44.37400000     -33.32700000     -69.11910000
H      -44.03150000     -33.32210000     -68.10370000
H      -45.27330000     -32.64730000     -68.97290000
C      -47.08660000     -32.82100000     -71.06850000
H      -47.42150000     -32.15170000     -70.22390000
H      -46.07260000     -32.70860000     -71.34470000
C      -47.23380000     -34.27130000     -70.75430000
C      -48.32080000     -35.06570000     -71.01310000
C      -46.18610000     -34.99340000     -70.06550000
H      -49.29420000     -34.75640000     -71.43500000
C      -46.50800000     -36.40850000     -70.04350000
C      -44.99700000     -34.68860000     -69.37150000
C      -44.44260000     -35.79120000     -68.78690000
S      -48.03570000     -36.75380000     -70.71970000
S      -45.24680000     -37.25530000     -69.11410000
H      -43.52470000     -35.82470000     -68.19300000
