40
Properties=species:S:1:pos:R:3 #=T CELL(abcABC):=T 1.889726e+02=T 90.00000=T Traj:=T positionsangstrom=T Step:=T 0=T Bead:=T pbc="F F F"
C      -43.15140000     -33.61960000     -74.08140000
C      -42.89650000     -32.46010000     -73.35120000
C      -43.67380000     -31.31700000     -73.65220000
C      -44.88540000     -31.39360000     -74.39280000
C      -45.18760000     -32.60480000     -75.00620000
C      -44.33940000     -33.65790000     -74.94320000
H      -42.67380000     -34.55450000     -73.84650000
H      -43.40970000     -30.31710000     -73.26030000
H      -46.11660000     -32.71060000     -75.53670000
H      -44.54010000     -34.68760000     -75.40870000
C      -45.90760000     -30.25270000     -74.35650000
H      -46.39500000     -30.16720000     -75.30200000
H      -45.52340000     -29.27630000     -74.06980000
C      -41.75140000     -32.48440000     -72.38890000
H      -41.35980000     -33.51920000     -72.24750000
H      -41.03460000     -31.74030000     -72.77170000
S      -47.15520000     -30.54530000     -73.01350000
S      -42.21850000     -31.77460000     -70.71160000
C      -47.59200000     -32.36650000     -72.60720000
H      -48.67840000     -32.44540000     -72.50110000
H      -47.20200000     -32.93090000     -73.44870000
C      -43.34670000     -33.09170000     -70.21370000
H      -42.72590000     -33.96490000     -69.83290000
H      -43.91980000     -33.51820000     -71.04310000
C      -44.36240000     -32.71400000     -69.10860000
H      -43.96310000     -32.21840000     -68.23500000
H      -45.05210000     -31.97160000     -69.51190000
C      -46.78320000     -32.81880000     -71.40710000
H      -46.94040000     -32.12300000     -70.58390000
H      -45.69990000     -32.71480000     -71.64880000
C      -46.97890000     -34.15660000     -70.71920000
C      -47.76550000     -35.19600000     -71.14810000
C      -46.25670000     -34.60870000     -69.54810000
H      -48.48460000     -35.21580000     -71.91870000
C      -46.62760000     -35.85260000     -68.98310000
C      -45.24200000     -33.98310000     -68.71500000
C      -44.84220000     -34.82910000     -67.71260000
S      -47.86560000     -36.54150000     -70.01780000
S      -45.70410000     -36.34730000     -67.63740000
H      -44.18760000     -34.54280000     -66.91080000
