40
Properties=species:S:1:pos:R:3 #=T CELL(abcABC):=T 1.889726e+02=T 90.00000=T Traj:=T positionsangstrom=T Step:=T 0=T Bead:=T pbc="F F F"
C      -45.88820000     -31.07710000     -68.37860000
C      -46.83690000     -31.08390000     -69.42250000
C      -47.68140000     -32.24850000     -69.60220000
C      -47.46880000     -33.32880000     -68.76700000
C      -46.54860000     -33.25110000     -67.73260000
C      -45.77050000     -32.12250000     -67.45190000
H      -45.25840000     -30.21040000     -68.23280000
H      -48.44960000     -32.18230000     -70.33780000
H      -46.40420000     -34.11370000     -67.05990000
H      -45.05610000     -32.01920000     -66.61850000
C      -48.22210000     -34.66200000     -68.92080000
H      -49.26890000     -34.65440000     -68.80780000
H      -47.83160000     -35.61100000     -68.33510000
C      -46.96310000     -29.86190000     -70.32030000
H      -47.83040000     -29.74180000     -70.84430000
H      -46.77930000     -28.93080000     -69.78280000
S      -48.07800000     -35.23510000     -70.71150000
S      -45.69260000     -29.96080000     -71.76480000
C      -46.27800000     -35.75270000     -70.71860000
H      -45.61070000     -34.94130000     -70.48750000
H      -46.16030000     -36.56600000     -70.07850000
C      -46.47390000     -31.33170000     -72.81470000
H      -46.15780000     -31.23140000     -73.87660000
H      -47.59260000     -31.31000000     -72.68820000
C      -45.91560000     -32.71620000     -72.46400000
H      -46.31450000     -33.00490000     -71.48130000
H      -46.51030000     -33.34410000     -73.11520000
C      -46.01820000     -36.09820000     -72.20830000
H      -46.67000000     -35.49550000     -72.89400000
H      -46.18360000     -37.17290000     -72.31820000
C      -44.61860000     -35.68060000     -72.56400000
C      -43.70050000     -36.64390000     -72.81700000
C      -44.03070000     -34.34230000     -72.65400000
H      -43.79500000     -37.65270000     -73.05580000
C      -42.63370000     -34.40780000     -72.83430000
C      -44.49030000     -32.98690000     -72.62070000
C      -43.50350000     -32.04960000     -72.90830000
S      -42.06960000     -35.98550000     -73.05800000
S      -41.94370000     -32.85620000     -73.05360000
H      -43.71010000     -31.01760000     -72.94840000
