40
Properties=species:S:1:pos:R:3 #=T CELL(abcABC):=T 1.889726e+02=T 90.00000=T Traj:=T positionsangstrom=T Step:=T 0=T Bead:=T pbc="F F F"
C      -42.64180000     -34.23300000     -73.50720000
C      -42.69610000     -32.89910000     -73.25480000
C      -43.79080000     -32.17920000     -73.86960000
C      -44.85010000     -32.83300000     -74.47260000
C      -44.75110000     -34.25430000     -74.64970000
C      -43.69440000     -34.89320000     -74.11350000
H      -41.88210000     -34.87680000     -73.06240000
H      -43.90920000     -30.98920000     -73.80500000
H      -45.57710000     -34.89370000     -75.10440000
H      -43.66110000     -35.91230000     -74.30810000
C      -46.07270000     -32.06350000     -74.91020000
H      -46.82260000     -32.78120000     -75.07460000
H      -45.83530000     -31.54760000     -75.87880000
C      -41.62190000     -32.21010000     -72.49200000
H      -40.68180000     -32.72620000     -72.60480000
H      -41.53970000     -31.20220000     -72.92130000
S      -46.57910000     -30.75040000     -73.78770000
S      -41.82800000     -31.99590000     -70.66770000
C      -47.47510000     -31.64370000     -72.45970000
H      -48.22980000     -30.99450000     -72.11020000
H      -47.88590000     -32.58670000     -72.75160000
C      -43.14380000     -33.25460000     -70.27450000
H      -42.69560000     -34.20000000     -70.10170000
H      -43.80970000     -33.53230000     -71.13990000
C      -43.97960000     -32.87330000     -69.13890000
H      -43.38080000     -32.75850000     -68.18350000
H      -44.49680000     -31.91900000     -69.23850000
C      -46.53740000     -32.05310000     -71.26400000
H      -46.33520000     -31.13560000     -70.69930000
H      -45.57470000     -32.24600000     -71.69750000
C      -47.07990000     -33.24070000     -70.49680000
C      -48.34260000     -33.71310000     -70.62180000
C      -46.43570000     -34.00200000     -69.43670000
H      -48.98070000     -33.38070000     -71.40110000
C      -47.17670000     -35.06970000     -68.96170000
C      -45.06590000     -34.01660000     -68.95890000
C      -44.89580000     -35.05490000     -68.12520000
S      -48.73640000     -35.10960000     -69.65100000
S      -46.38250000     -36.06110000     -67.78470000
H      -44.02900000     -35.33270000     -67.55830000
