40
Properties=species:S:1:pos:R:3 #=T CELL(abcABC):=T 1.889726e+02=T 90.00000=T Traj:=T positionsangstrom=T Step:=T 0=T Bead:=T pbc="F F F"
C      -42.80430000     -34.09470000     -73.77580000
C      -42.67090000     -32.71120000     -73.57840000
C      -43.70390000     -31.86380000     -73.95010000
C      -44.89440000     -32.33900000     -74.62490000
C      -44.99440000     -33.69710000     -74.79290000
C      -43.92710000     -34.54240000     -74.44490000
H      -41.97080000     -34.72790000     -73.59950000
H      -43.68150000     -30.83210000     -73.56520000
H      -45.77240000     -34.19270000     -75.43400000
H      -43.90910000     -35.63740000     -74.87200000
C      -46.03150000     -31.34480000     -74.79450000
H      -46.85390000     -31.95210000     -75.34680000
H      -45.72980000     -30.53650000     -75.47740000
C      -41.53980000     -32.19580000     -72.78150000
H      -40.75070000     -32.84730000     -72.49860000
H      -41.08130000     -31.37470000     -73.25420000
S      -46.68330000     -30.61520000     -73.22070000
S      -42.28930000     -31.52670000     -71.13910000
C      -47.48170000     -31.97360000     -72.23170000
H      -48.37540000     -31.57590000     -71.76040000
H      -47.83860000     -32.70780000     -73.00380000
C      -42.97240000     -33.24400000     -70.44380000
H      -42.01540000     -33.69460000     -70.24790000
H      -43.46010000     -33.65670000     -71.29200000
C      -43.92310000     -33.10040000     -69.18460000
H      -43.16120000     -33.10850000     -68.35820000
H      -44.36010000     -32.05460000     -69.21100000
C      -46.48010000     -32.71280000     -71.44480000
H      -45.96730000     -31.95840000     -70.81900000
H      -45.75840000     -33.13930000     -72.16570000
C      -47.08620000     -33.77500000     -70.50730000
C      -48.29480000     -34.36340000     -70.67560000
C      -46.27410000     -34.35480000     -69.47180000
H      -49.07440000     -34.21050000     -71.44950000
C      -47.02040000     -35.33010000     -68.84680000
C      -45.01780000     -34.10160000     -68.89530000
C      -44.79890000     -34.87650000     -67.79970000
S      -48.60140000     -35.68190000     -69.50450000
S      -46.12870000     -36.04050000     -67.50620000
H      -43.94420000     -34.89500000     -67.11480000
