40
Properties=species:S:1:pos:R:3 #=T CELL(abcABC):=T 1.889726e+02=T 90.00000=T Traj:=T positionsangstrom=T Step:=T 0=T Bead:=T pbc="F F F"
C      -45.70040000     -31.10280000     -68.60360000
C      -46.82240000     -31.03840000     -69.42650000
C      -47.73510000     -32.13370000     -69.35720000
C      -47.43130000     -33.27760000     -68.65980000
C      -46.31760000     -33.25210000     -67.80990000
C      -45.48990000     -32.12900000     -67.71060000
H      -44.97210000     -30.28180000     -68.53250000
H      -48.65120000     -32.05170000     -69.91450000
H      -45.99450000     -34.12050000     -67.25320000
H      -44.67110000     -32.04740000     -67.03880000
C      -48.22360000     -34.61620000     -68.76580000
H      -49.32510000     -34.50400000     -68.69070000
H      -47.86710000     -35.13840000     -67.94090000
C      -47.20450000     -29.93080000     -70.40260000
H      -48.14050000     -30.40190000     -70.80880000
H      -47.33210000     -28.91470000     -69.97350000
S      -48.18630000     -35.51080000     -70.37460000
S      -46.06180000     -29.79680000     -71.77450000
C      -46.36340000     -35.74960000     -70.80810000
H      -45.77180000     -34.79370000     -70.59520000
H      -46.08920000     -36.53780000     -70.04390000
C      -46.27220000     -31.17260000     -72.93480000
H      -45.69060000     -30.90390000     -73.88140000
H      -47.37980000     -31.13680000     -73.15380000
C      -45.94240000     -32.59830000     -72.49710000
H      -46.39330000     -32.75490000     -71.51040000
H      -46.48600000     -33.26490000     -73.13600000
C      -46.00350000     -36.08470000     -72.29970000
H      -46.74100000     -35.61860000     -72.93070000
H      -46.11030000     -37.18570000     -72.54190000
C      -44.63510000     -35.66600000     -72.65410000
C      -43.66570000     -36.61390000     -72.73490000
C      -43.99130000     -34.36430000     -72.73110000
H      -43.87440000     -37.69140000     -72.84480000
C      -42.63230000     -34.41810000     -72.98260000
C      -44.41150000     -32.96770000     -72.57730000
C      -43.36710000     -32.05480000     -72.65970000
S      -42.05370000     -36.05330000     -73.13640000
S      -41.82010000     -32.88270000     -73.13130000
H      -43.26980000     -30.96270000     -72.66330000
