40
Properties=species:S:1:pos:R:3 #=T CELL(abcABC):=T 1.889726e+02=T 90.00000=T Traj:=T positionsangstrom=T Step:=T 0=T Bead:=T pbc="F F F"
C      -45.92790000     -30.92600000     -68.52210000
C      -46.99180000     -31.01390000     -69.43810000
C      -47.73140000     -32.21170000     -69.57120000
C      -47.41660000     -33.35800000     -68.74610000
C      -46.39300000     -33.20210000     -67.77420000
C      -45.59480000     -32.02290000     -67.82420000
H      -45.25460000     -30.08850000     -68.49550000
H      -48.57340000     -32.32420000     -70.24440000
H      -45.96580000     -34.06360000     -67.19990000
H      -44.59360000     -32.00150000     -67.30090000
C      -48.15030000     -34.65280000     -68.84900000
H      -49.13760000     -34.52050000     -68.64080000
H      -47.73580000     -35.24900000     -67.99030000
C      -47.20200000     -29.82670000     -70.34130000
H      -48.23160000     -29.85490000     -70.80000000
H      -47.20210000     -28.85500000     -69.80600000
S      -48.22080000     -35.39890000     -70.62680000
S      -45.84780000     -29.83470000     -71.63810000
C      -46.35060000     -35.60440000     -70.77320000
H      -45.91670000     -34.61470000     -70.59400000
H      -46.09430000     -36.38170000     -69.99110000
C      -46.38910000     -31.20110000     -72.72160000
H      -46.09790000     -30.87490000     -73.75880000
H      -47.49260000     -31.13840000     -72.67450000
C      -45.86110000     -32.59080000     -72.29560000
H      -46.03540000     -32.70480000     -71.24360000
H      -46.51970000     -33.31960000     -72.77490000
C      -45.95160000     -36.11980000     -72.18560000
H      -46.74950000     -35.83760000     -72.90030000
H      -45.93890000     -37.15760000     -72.17390000
C      -44.54200000     -35.75240000     -72.56620000
C      -43.60940000     -36.76310000     -72.86810000
C      -43.96950000     -34.38400000     -72.59050000
H      -43.84600000     -37.80600000     -72.73620000
C      -42.63370000     -34.44870000     -72.96140000
C      -44.39900000     -33.02210000     -72.48330000
C      -43.39230000     -32.12380000     -72.73160000
S      -42.06610000     -36.09760000     -73.18020000
S      -41.87510000     -32.90660000     -73.15110000
H      -43.39920000     -31.06210000     -72.85810000
