40
Properties=species:S:1:pos:R:3 #=T CELL(abcABC):=T 1.889726e+02=T 90.00000=T Traj:=T positionsangstrom=T Step:=T 0=T Bead:=T pbc="F F F"
C      -45.45450000     -32.23720000     -68.10950000
C      -46.71120000     -31.93340000     -68.71610000
C      -47.63860000     -32.93840000     -68.93500000
C      -47.24730000     -34.29270000     -68.73010000
C      -45.98650000     -34.62080000     -68.24760000
C      -45.15470000     -33.55680000     -67.81420000
H      -44.85420000     -31.36310000     -67.70700000
H      -48.64720000     -32.71360000     -69.36900000
H      -45.73960000     -35.66320000     -68.22680000
H      -44.28830000     -33.88470000     -67.30080000
C      -48.22120000     -35.32810000     -69.39750000
H      -49.21330000     -35.16250000     -68.90810000
H      -47.91770000     -36.35180000     -69.12450000
C      -46.91880000     -30.55540000     -69.12460000
H      -47.98720000     -30.30060000     -69.44530000
H      -46.60280000     -29.96790000     -68.26650000
S      -48.25260000     -35.24950000     -71.20160000
S      -45.76990000     -29.99570000     -70.49070000
C      -46.41850000     -35.70360000     -71.56700000
H      -45.81710000     -35.11500000     -70.87650000
H      -46.21640000     -36.78630000     -71.38220000
C      -46.47330000     -30.87840000     -71.96860000
H      -46.35440000     -30.24910000     -72.81920000
H      -47.54330000     -30.88540000     -71.73730000
C      -46.01270000     -32.32640000     -72.15820000
H      -46.29400000     -32.88720000     -71.25230000
H      -46.55900000     -32.83760000     -72.97590000
C      -46.18150000     -35.47100000     -73.05690000
H      -46.78180000     -34.65350000     -73.45220000
H      -46.39630000     -36.39570000     -73.63660000
C      -44.65620000     -35.08200000     -73.21730000
C      -43.74370000     -35.99930000     -73.68640000
C      -44.08690000     -33.79510000     -72.94540000
H      -44.02680000     -36.93000000     -74.15500000
C      -42.72270000     -33.78780000     -73.19620000
C      -44.59540000     -32.55400000     -72.42200000
C      -43.63920000     -31.57180000     -72.41520000
S      -42.16740000     -35.37100000     -73.84210000
S      -42.05700000     -32.19240000     -72.86990000
H      -43.67010000     -30.56960000     -72.11440000
