40
Properties=species:S:1:pos:R:3 #=T CELL(abcABC):=T 1.889726e+02=T 90.00000=T Traj:=T positionsangstrom=T Step:=T 0=T Bead:=T pbc="F F F"
C      -46.32580000     -35.56890000     -74.39940000
C      -46.72770000     -35.88340000     -73.07390000
C      -45.74570000     -36.22030000     -72.09150000
C      -44.41790000     -36.29070000     -72.44910000
C      -44.02440000     -36.12050000     -73.78640000
C      -44.92700000     -35.73690000     -74.72980000
H      -47.04700000     -35.29090000     -75.14040000
H      -46.08210000     -36.53640000     -71.08360000
H      -43.00260000     -36.16570000     -74.16500000
H      -44.60590000     -35.54520000     -75.70470000
C      -43.36080000     -36.67820000     -71.36810000
H      -42.76440000     -37.55810000     -71.62810000
H      -43.72990000     -36.77730000     -70.36530000
C      -48.13220000     -35.93430000     -72.61120000
H      -48.80370000     -36.34750000     -73.38600000
H      -48.28790000     -36.62680000     -71.73580000
S      -41.90500000     -35.50120000     -71.33240000
S      -48.78160000     -34.28970000     -71.86460000
C      -42.62150000     -33.83490000     -71.39700000
H      -41.78320000     -33.16240000     -71.68300000
H      -43.40740000     -33.65140000     -72.17810000
C      -48.02270000     -34.29310000     -70.16810000
H      -47.99180000     -35.26030000     -69.65960000
H      -48.65160000     -33.66690000     -69.55540000
C      -46.59340000     -33.74600000     -70.22040000
H      -46.13300000     -34.15870000     -69.30580000
H      -46.01860000     -34.15630000     -71.09700000
C      -43.26920000     -33.34290000     -70.06910000
H      -42.57730000     -33.46980000     -69.23230000
H      -44.16190000     -34.00260000     -69.95800000
C      -43.75780000     -31.91860000     -70.11370000
C      -42.92050000     -30.81820000     -69.91520000
C      -45.11870000     -31.52060000     -70.21870000
H      -41.83890000     -30.91700000     -69.75120000
C      -45.28940000     -30.11440000     -70.21010000
C      -46.37160000     -32.23120000     -70.24510000
C      -47.45870000     -31.33650000     -70.31370000
S      -43.76610000     -29.26750000     -69.95140000
S      -46.94540000     -29.69780000     -70.46270000
H      -48.53540000     -31.61010000     -70.51570000
