40
Properties=species:S:1:pos:R:3 #=T CELL(abcABC):=T 1.889726e+02=T 90.00000=T Traj:=T positionsangstrom=T Step:=T 0=T Bead:=T pbc="F F F"
C      -45.88790000     -31.89520000     -68.19210000
C      -46.89250000     -31.61230000     -69.09940000
C      -47.80720000     -32.58830000     -69.46380000
C      -47.74460000     -33.84080000     -68.84740000
C      -46.73030000     -34.17350000     -67.89580000
C      -45.76180000     -33.22440000     -67.64360000
H      -45.10670000     -31.13940000     -68.17140000
H      -48.57660000     -32.33510000     -70.20020000
H      -46.71780000     -35.20490000     -67.58640000
H      -44.92210000     -33.46080000     -67.02600000
C      -48.67360000     -34.94630000     -69.20570000
H      -49.75320000     -34.58070000     -69.20630000
H      -48.51560000     -35.80160000     -68.53800000
C      -47.25120000     -30.27830000     -69.64610000
H      -48.25640000     -30.25550000     -70.05310000
H      -47.18480000     -29.44160000     -68.89090000
S      -48.16500000     -35.55580000     -71.03930000
S      -45.87560000     -29.77070000     -70.91180000
C      -46.32760000     -35.61090000     -71.08980000
H      -46.01860000     -34.68060000     -70.66950000
H      -46.01130000     -36.45520000     -70.36720000
C      -46.04830000     -30.64780000     -72.65210000
H      -45.40670000     -30.02780000     -73.20970000
H      -47.00910000     -30.41680000     -72.93360000
C      -45.78480000     -32.10870000     -72.86330000
H      -46.43130000     -32.71840000     -72.17540000
H      -46.18530000     -32.30240000     -73.84100000
C      -45.92900000     -35.60570000     -72.56870000
H      -46.44340000     -34.80270000     -73.06990000
H      -46.36630000     -36.56120000     -72.90170000
C      -44.49520000     -35.36100000     -72.75990000
C      -43.59310000     -36.40750000     -72.92950000
C      -43.92620000     -34.02640000     -72.81090000
H      -43.83060000     -37.44070000     -73.02340000
C      -42.52570000     -34.09360000     -72.97450000
C      -44.39800000     -32.66580000     -72.87470000
C      -43.34110000     -31.75170000     -73.10760000
S      -41.90400000     -35.77850000     -72.94280000
S      -41.79430000     -32.51430000     -73.09370000
H      -43.37850000     -30.67630000     -73.21770000
