40
Properties=species:S:1:pos:R:3 #=T CELL(abcABC):=T 1.889726e+02=T 90.00000=T Traj:=T positionsangstrom=T Step:=T 0=T Bead:=T pbc="F F F"
C      -42.89540000     -30.09310000     -68.81320000
C      -43.54270000     -31.32500000     -68.90000000
C      -43.14780000     -32.24100000     -69.89180000
C      -42.27040000     -31.89220000     -70.89220000
C      -41.57320000     -30.66460000     -70.88050000
C      -41.96250000     -29.79360000     -69.84550000
H      -42.97580000     -29.32520000     -68.08260000
H      -43.50320000     -33.26220000     -69.96990000
H      -41.04460000     -30.21990000     -71.67320000
H      -41.36040000     -28.88450000     -69.74300000
C      -41.95270000     -32.99180000     -71.89690000
H      -41.70670000     -33.95350000     -71.39990000
H      -41.29120000     -32.57290000     -72.66800000
C      -44.42640000     -31.72830000     -67.74480000
H      -44.14820000     -32.73280000     -67.26850000
H      -44.46870000     -31.02690000     -66.84890000
S      -43.50190000     -33.35680000     -72.92360000
S      -46.17670000     -31.85400000     -68.16690000
C      -44.65480000     -31.95980000     -72.63630000
H      -44.60510000     -31.84330000     -71.53350000
H      -44.36630000     -31.13250000     -73.21820000
C      -46.24680000     -32.87090000     -69.66320000
H      -45.62980000     -33.73070000     -69.55530000
H      -45.76000000     -32.24790000     -70.46670000
C      -47.63110000     -33.26990000     -70.15500000
H      -48.32160000     -33.39780000     -69.30910000
H      -47.99080000     -32.43610000     -70.81270000
C      -46.14380000     -32.22360000     -72.95160000
H      -46.43080000     -31.67770000     -73.85770000
H      -46.83070000     -31.81920000     -72.12530000
C      -46.45870000     -33.68620000     -73.26140000
C      -46.09640000     -34.29440000     -74.45470000
C      -47.13250000     -34.57960000     -72.32050000
H      -45.63080000     -33.92370000     -75.29490000
C      -47.15960000     -35.94310000     -72.81490000
C      -47.62180000     -34.48860000     -71.01170000
C      -48.07570000     -35.72720000     -70.50480000
S      -46.41310000     -36.05210000     -74.43500000
S      -47.92970000     -37.06920000     -71.76000000
H      -48.50400000     -36.04000000     -69.59100000
