40
Properties=species:S:1:pos:R:3 #=T CELL(abcABC):=T 1.889726e+02=T 90.00000=T Traj:=T positionsangstrom=T Step:=T 0=T Bead:=T pbc="F F F"
C      -46.47950000     -35.86490000     -74.34880000
C      -46.72710000     -35.94380000     -72.92740000
C      -45.69770000     -36.23050000     -72.00450000
C      -44.38170000     -36.27040000     -72.39520000
C      -44.08330000     -36.09220000     -73.77170000
C      -45.10890000     -35.99840000     -74.72640000
H      -47.20070000     -35.66730000     -75.06610000
H      -46.08780000     -36.20080000     -71.00710000
H      -43.05200000     -36.18900000     -74.24830000
H      -44.84090000     -35.91760000     -75.73720000
C      -43.18590000     -36.58320000     -71.40130000
H      -42.76100000     -37.61220000     -71.62240000
H      -43.63720000     -36.61030000     -70.42710000
C      -48.13550000     -35.87550000     -72.45570000
H      -48.75470000     -36.09760000     -73.25790000
H      -48.43380000     -36.45600000     -71.57240000
S      -41.80620000     -35.33320000     -71.48540000
S      -48.68380000     -34.15020000     -71.82090000
C      -42.73270000     -33.75180000     -71.23020000
H      -41.99800000     -33.04800000     -71.47190000
H      -43.53330000     -33.56420000     -71.92880000
C      -47.97540000     -34.35680000     -70.13950000
H      -47.97860000     -35.41420000     -69.88440000
H      -48.68180000     -33.82460000     -69.47660000
C      -46.58460000     -33.73990000     -69.99800000
H      -46.17320000     -33.93530000     -69.00530000
H      -45.89690000     -34.23710000     -70.68360000
C      -43.18600000     -33.38980000     -69.82300000
H      -42.49960000     -33.36220000     -68.96260000
H      -44.03570000     -34.01750000     -69.49000000
C      -43.79920000     -32.00610000     -69.93730000
C      -42.97400000     -30.91630000     -70.00030000
C      -45.22000000     -31.61920000     -70.06810000
H      -41.92380000     -31.08050000     -70.15760000
C      -45.30220000     -30.24340000     -70.15720000
C      -46.51390000     -32.25010000     -70.22750000
C      -47.52630000     -31.33940000     -70.52900000
S      -43.79180000     -29.34260000     -70.31810000
S      -46.89690000     -29.60180000     -70.50200000
H      -48.60860000     -31.59910000     -70.52310000
