40
Properties=species:S:1:pos:R:3 #=T CELL(abcABC):=T 1.889726e+02=T 90.00000=T Traj:=T positionsangstrom=T Step:=T 0=T Bead:=T pbc="F F F"
C      -42.94450000     -34.81950000     -74.05930000
C      -42.79130000     -33.49600000     -73.57330000
C      -43.79720000     -32.55330000     -73.96190000
C      -44.95430000     -33.01220000     -74.61950000
C      -44.99040000     -34.27570000     -75.07890000
C      -44.03230000     -35.22750000     -74.84850000
H      -42.12780000     -35.46590000     -73.74520000
H      -43.75600000     -31.52010000     -73.51510000
H      -45.89420000     -34.64720000     -75.68290000
H      -44.20000000     -36.19050000     -75.26720000
C      -45.98760000     -31.94450000     -74.93680000
H      -46.94750000     -32.39410000     -75.16710000
H      -45.65430000     -31.21340000     -75.77760000
C      -41.61050000     -33.02930000     -72.83730000
H      -41.10900000     -34.01280000     -72.62570000
H      -41.04190000     -32.27170000     -73.40070000
S      -46.36530000     -30.73190000     -73.58790000
S      -41.87520000     -32.22590000     -71.21630000
C      -47.28000000     -31.88780000     -72.44170000
H      -48.22590000     -31.42040000     -72.23620000
H      -47.33240000     -32.85390000     -73.06440000
C      -43.10560000     -33.39150000     -70.42620000
H      -42.66020000     -34.31600000     -70.27930000
H      -43.86790000     -33.56080000     -71.18160000
C      -43.88790000     -32.81370000     -69.24330000
H      -43.26090000     -32.48990000     -68.26150000
H      -44.26910000     -31.87110000     -69.54670000
C      -46.49380000     -32.07150000     -71.20980000
H      -46.48590000     -31.16180000     -70.67540000
H      -45.49010000     -32.40230000     -71.37660000
C      -47.13050000     -33.09190000     -70.32990000
C      -48.48120000     -33.43830000     -70.27830000
C      -46.38960000     -33.75220000     -69.27560000
H      -49.23380000     -33.19430000     -71.00780000
C      -47.18600000     -34.70900000     -68.55360000
C      -45.02090000     -33.76140000     -68.78270000
C      -44.86160000     -34.61710000     -67.73730000
S      -48.77490000     -34.73640000     -69.15080000
S      -46.24450000     -35.60690000     -67.41640000
H      -43.97020000     -34.87730000     -67.22870000
