40
Properties=species:S:1:pos:R:3 #=T CELL(abcABC):=T 1.889726e+02=T 90.00000=T Traj:=T positionsangstrom=T Step:=T 0=T Bead:=T pbc="F F F"
C      -42.70410000     -34.69370000     -73.88930000
C      -42.69300000     -33.36160000     -73.41470000
C      -43.65960000     -32.46010000     -73.87030000
C      -44.72910000     -33.01380000     -74.67930000
C      -44.82140000     -34.37370000     -74.98960000
C      -43.75200000     -35.23700000     -74.61290000
H      -41.83550000     -35.28360000     -73.67310000
H      -43.58100000     -31.39730000     -73.73360000
H      -45.62900000     -34.76360000     -75.59470000
H      -43.89840000     -36.31320000     -74.79920000
C      -45.73020000     -32.01250000     -75.15510000
H      -46.58070000     -32.47220000     -75.60320000
H      -45.39090000     -31.43440000     -75.96440000
C      -41.60630000     -32.81450000     -72.55050000
H      -40.92830000     -33.67080000     -72.24170000
H      -40.90790000     -32.10710000     -73.06050000
S      -46.49640000     -30.86030000     -73.84090000
S      -42.15600000     -31.89290000     -71.06300000
C      -47.16970000     -32.19270000     -72.75290000
H      -48.12360000     -31.81050000     -72.39500000
H      -47.46410000     -33.03260000     -73.32980000
C      -43.03620000     -33.38220000     -70.28990000
H      -42.27230000     -34.10550000     -70.07350000
H      -43.77320000     -33.78610000     -71.08390000
C      -43.88480000     -32.98840000     -69.02200000
H      -43.30950000     -32.93440000     -68.14830000
H      -44.36850000     -31.96960000     -69.23670000
C      -46.19250000     -32.56880000     -71.65530000
H      -45.71760000     -31.68730000     -71.31540000
H      -45.39130000     -33.13650000     -72.02410000
C      -46.87660000     -33.40830000     -70.52130000
C      -48.23010000     -33.63590000     -70.62280000
C      -46.32040000     -33.92960000     -69.28330000
H      -48.97960000     -33.18360000     -71.29220000
C      -47.29930000     -34.68760000     -68.60010000
C      -45.03100000     -33.94730000     -68.66970000
C      -45.06190000     -34.64390000     -67.43920000
S      -48.88870000     -34.54240000     -69.31950000
S      -46.62440000     -35.39430000     -67.20230000
H      -44.14890000     -34.83200000     -66.83650000
