40
Properties=species:S:1:pos:R:3 #=T CELL(abcABC):=T 1.889726e+02=T 90.00000=T Traj:=T positionsangstrom=T Step:=T 0=T Bead:=T pbc="F F F"
C      -43.05430000     -34.93440000     -74.05280000
C      -42.78500000     -33.64990000     -73.62370000
C      -43.80110000     -32.67760000     -73.68940000
C      -44.91800000     -32.95380000     -74.50550000
C      -45.13090000     -34.27030000     -74.93060000
C      -44.24170000     -35.25640000     -74.77140000
H      -42.26090000     -35.68370000     -73.82420000
H      -43.69360000     -31.70100000     -73.34360000
H      -46.05080000     -34.44610000     -75.53030000
H      -44.48250000     -36.26970000     -75.06820000
C      -45.89120000     -31.84410000     -74.97210000
H      -46.72180000     -32.40470000     -75.43020000
H      -45.56810000     -31.25740000     -75.81750000
C      -41.56930000     -33.22700000     -72.89810000
H      -40.97330000     -34.13160000     -72.85510000
H      -40.93680000     -32.64810000     -73.50290000
S      -46.40630000     -30.66780000     -73.62630000
S      -41.89210000     -32.33850000     -71.25100000
C      -47.32510000     -31.60410000     -72.39400000
H      -48.21060000     -31.04060000     -72.20570000
H      -47.68030000     -32.56470000     -72.74060000
C      -43.17470000     -33.48170000     -70.57490000
H      -42.68320000     -34.40690000     -70.07530000
H      -43.83190000     -33.83920000     -71.41690000
C      -43.95860000     -32.77280000     -69.37520000
H      -43.16610000     -32.68100000     -68.63670000
H      -44.33410000     -31.78390000     -69.59480000
C      -46.60330000     -31.87830000     -71.06270000
H      -46.61770000     -30.93430000     -70.45490000
H      -45.56830000     -32.10930000     -71.39450000
C      -47.16430000     -32.99190000     -70.27420000
C      -48.49620000     -33.40530000     -70.19400000
C      -46.36830000     -33.71180000     -69.32170000
H      -49.24040000     -33.10060000     -70.83740000
C      -47.03260000     -34.69650000     -68.65360000
C      -45.00390000     -33.66870000     -68.81990000
C      -44.67340000     -34.64420000     -67.94870000
S      -48.70670000     -34.75980000     -69.08080000
S      -46.15240000     -35.61900000     -67.46150000
H      -43.82320000     -34.85150000     -67.35180000
