40
Properties=species:S:1:pos:R:3 #=T CELL(abcABC):=T 1.889726e+02=T 90.00000=T Traj:=T positionsangstrom=T Step:=T 0=T Bead:=T pbc="F F F"
C      -45.19110000     -32.63350000     -68.08990000
C      -46.37670000     -32.10260000     -68.62710000
C      -47.33620000     -32.97580000     -69.12180000
C      -47.29130000     -34.35540000     -68.89280000
C      -46.15780000     -34.87080000     -68.28320000
C      -45.09520000     -34.02410000     -67.96880000
H      -44.40980000     -32.00250000     -67.81150000
H      -48.28680000     -32.61230000     -69.47650000
H      -45.76010000     -35.91130000     -68.45120000
H      -44.15830000     -34.44830000     -67.57980000
C      -48.40750000     -35.23160000     -69.37160000
H      -49.35780000     -34.77340000     -69.26130000
H      -48.38840000     -36.13940000     -68.77910000
C      -46.53310000     -30.63820000     -68.60030000
H      -47.58560000     -30.27440000     -68.53050000
H      -45.96450000     -30.24180000     -67.68250000
S      -48.38480000     -35.75080000     -71.23680000
S      -45.62040000     -29.89680000     -70.03360000
C      -46.58490000     -35.60170000     -71.70650000
H      -46.06130000     -34.86230000     -71.10420000
H      -46.08460000     -36.53230000     -71.53840000
C      -46.39590000     -30.70750000     -71.49540000
H      -46.23680000     -30.10670000     -72.42140000
H      -47.47670000     -30.60080000     -71.35750000
C      -46.00430000     -32.14550000     -71.95870000
H      -46.27350000     -32.87560000     -71.24370000
H      -46.70460000     -32.40760000     -72.83840000
C      -46.32300000     -35.19090000     -73.20270000
H      -47.03800000     -34.38880000     -73.44350000
H      -46.62260000     -36.02060000     -73.87680000
C      -44.84480000     -34.89860000     -73.40780000
C      -43.98940000     -35.71100000     -74.11940000
C      -44.10860000     -33.65880000     -73.01310000
H      -44.21020000     -36.68640000     -74.62100000
C      -42.70910000     -33.65750000     -73.22290000
C      -44.57900000     -32.43020000     -72.39270000
C      -43.58040000     -31.51550000     -72.32250000
S      -42.29990000     -35.22290000     -74.16980000
S      -42.09720000     -32.08750000     -72.95540000
H      -43.57190000     -30.45220000     -71.94290000
