40
Properties=species:S:1:pos:R:3 #=T CELL(abcABC):=T 1.889726e+02=T 90.00000=T Traj:=T positionsangstrom=T Step:=T 0=T Bead:=T pbc="F F F"
C      -43.50220000     -34.72470000     -73.68820000
C      -42.99950000     -33.40210000     -73.61140000
C      -43.84700000     -32.38070000     -74.03940000
C      -45.12830000     -32.60650000     -74.57950000
C      -45.57350000     -33.95320000     -74.45430000
C      -44.81270000     -34.99890000     -73.99310000
H      -42.76160000     -35.47230000     -73.51120000
H      -43.46280000     -31.36640000     -74.09170000
H      -46.55360000     -34.23480000     -74.77140000
H      -45.28760000     -35.93990000     -74.17840000
C      -46.02600000     -31.40670000     -74.93710000
H      -46.85940000     -31.73650000     -75.52140000
H      -45.59690000     -30.67350000     -75.52500000
C      -41.57110000     -33.16150000     -73.17940000
H      -40.94190000     -33.98360000     -73.40490000
H      -41.16770000     -32.22760000     -73.52060000
S      -46.43170000     -30.39200000     -73.44120000
S      -41.54420000     -33.02280000     -71.31470000
C      -47.26960000     -31.53590000     -72.34570000
H      -47.97920000     -30.87960000     -71.73910000
H      -47.86960000     -32.13750000     -72.97010000
C      -43.04060000     -33.85630000     -70.60560000
H      -42.73440000     -34.88560000     -70.39490000
H      -43.81090000     -33.89490000     -71.38620000
C      -43.62260000     -33.11510000     -69.42470000
H      -42.89100000     -33.06200000     -68.65440000
H      -43.86280000     -32.09360000     -69.75840000
C      -46.29510000     -32.28300000     -71.47000000
H      -45.62930000     -31.50670000     -71.01190000
H      -45.65190000     -32.88380000     -72.11120000
C      -46.96950000     -33.15140000     -70.47860000
C      -48.30220000     -33.45290000     -70.46840000
C      -46.21800000     -33.95810000     -69.42330000
H      -49.04500000     -33.07580000     -71.12160000
C      -47.07460000     -34.65340000     -68.60040000
C      -44.85870000     -33.90720000     -68.88280000
C      -44.68110000     -34.73170000     -67.84180000
S      -48.75790000     -34.54850000     -69.19940000
S      -46.19700000     -35.59200000     -67.44830000
H      -43.79420000     -35.02730000     -67.37290000
