40
Properties=species:S:1:pos:R:3 #=T CELL(abcABC):=T 1.889726e+02=T 90.00000=T Traj:=T positionsangstrom=T Step:=T 0=T Bead:=T pbc="F F F"
C      -46.49030000     -35.87090000     -74.23800000
C      -46.69410000     -36.02540000     -72.81720000
C      -45.66250000     -36.19900000     -71.96080000
C      -44.33110000     -36.29170000     -72.41500000
C      -44.08770000     -36.17490000     -73.80500000
C      -45.18870000     -35.89220000     -74.67010000
H      -47.33530000     -35.84120000     -74.92020000
H      -45.97490000     -36.44930000     -70.94620000
H      -43.09950000     -36.22190000     -74.26980000
H      -45.03340000     -35.62230000     -75.72380000
C      -43.24320000     -36.56740000     -71.36070000
H      -42.83990000     -37.53630000     -71.55430000
H      -43.72410000     -36.52330000     -70.32890000
C      -48.15610000     -35.94070000     -72.36050000
H      -48.80560000     -36.19590000     -73.22690000
H      -48.25510000     -36.73970000     -71.55340000
S      -41.90750000     -35.25890000     -71.52050000
S      -48.58860000     -34.28130000     -71.78850000
C      -42.76490000     -33.68440000     -71.30500000
H      -41.91460000     -33.01330000     -71.63130000
H      -43.60150000     -33.56780000     -72.06610000
C      -48.09470000     -34.18270000     -70.03400000
H      -48.38990000     -35.08960000     -69.51960000
H      -48.89840000     -33.43390000     -69.62930000
C      -46.63340000     -33.71180000     -69.68880000
H      -46.43490000     -33.91600000     -68.58930000
H      -45.94330000     -34.31180000     -70.27620000
C      -43.21630000     -33.33870000     -69.87380000
H      -42.32560000     -33.52810000     -69.28250000
H      -43.94360000     -34.08570000     -69.68320000
C      -43.77210000     -31.93200000     -69.90840000
C      -42.92410000     -30.87550000     -69.98930000
C      -45.15350000     -31.50960000     -70.13770000
H      -41.88430000     -30.88070000     -69.82770000
C      -45.23720000     -30.17640000     -70.44990000
C      -46.43330000     -32.22070000     -70.02050000
C      -47.46940000     -31.31870000     -70.23690000
S      -43.71300000     -29.37100000     -70.46030000
S      -46.96680000     -29.73750000     -70.72690000
H      -48.52050000     -31.51320000     -70.09180000
