40
Properties=species:S:1:pos:R:3 #=T CELL(abcABC):=T 1.889726e+02=T 90.00000=T Traj:=T positionsangstrom=T Step:=T 0=T Bead:=T pbc="F F F"
C      -43.95410000     -34.81030000     -74.36240000
C      -43.31540000     -33.63820000     -73.98480000
C      -43.91970000     -32.41640000     -74.19660000
C      -45.20730000     -32.40500000     -74.76370000
C      -45.86620000     -33.53520000     -75.17460000
C      -45.23410000     -34.76310000     -74.92340000
H      -43.48990000     -35.75540000     -74.12580000
H      -43.50180000     -31.47130000     -73.88330000
H      -46.86090000     -33.50700000     -75.59860000
H      -45.81450000     -35.65030000     -75.13740000
C      -45.99490000     -31.13700000     -74.87500000
H      -47.00390000     -31.30170000     -75.35100000
H      -45.44850000     -30.40900000     -75.51560000
C      -42.04490000     -33.74390000     -73.21120000
H      -41.88960000     -34.72110000     -72.74400000
H      -41.19920000     -33.51780000     -73.82270000
S      -46.29940000     -30.25320000     -73.21880000
S      -41.95530000     -32.72040000     -71.58500000
C      -46.96470000     -31.78810000     -72.35680000
H      -48.01790000     -31.53760000     -72.22460000
H      -46.95290000     -32.55300000     -73.09390000
C      -43.05170000     -33.77930000     -70.43330000
H      -42.52830000     -34.79980000     -70.16300000
H      -43.88310000     -34.04740000     -71.04470000
C      -43.41390000     -33.09480000     -69.07770000
H      -42.61990000     -33.19370000     -68.31700000
H      -43.55120000     -32.01290000     -69.28420000
C      -46.11650000     -32.15280000     -71.16180000
H      -45.91160000     -31.29650000     -70.54620000
H      -45.17060000     -32.46010000     -71.52700000
C      -46.80860000     -33.23340000     -70.25490000
C      -48.11840000     -33.68790000     -70.36920000
C      -46.03160000     -33.89360000     -69.24370000
H      -48.83050000     -33.38950000     -71.10610000
C      -46.82560000     -34.79030000     -68.53630000
C      -44.69670000     -33.74270000     -68.53620000
C      -44.55790000     -34.63860000     -67.51650000
S      -48.47170000     -34.92150000     -69.10370000
S      -46.06350000     -35.63130000     -67.16190000
H      -43.77600000     -34.71840000     -66.82040000
