40
Properties=species:S:1:pos:R:3 #=T CELL(abcABC):=T 1.889726e+02=T 90.00000=T Traj:=T positionsangstrom=T Step:=T 0=T Bead:=T pbc="F F F"
C      -43.53780000     -34.79600000     -73.90670000
C      -43.04480000     -33.51490000     -73.79170000
C      -43.86440000     -32.40610000     -74.03220000
C      -45.17830000     -32.61410000     -74.55250000
C      -45.65980000     -33.91840000     -74.55290000
C      -44.83860000     -35.03260000     -74.30170000
H      -42.88430000     -35.68790000     -73.89870000
H      -43.44760000     -31.42930000     -73.79540000
H      -46.72200000     -33.97620000     -74.86650000
H      -45.07790000     -36.07800000     -74.25290000
C      -46.13610000     -31.40450000     -74.79160000
H      -47.07140000     -31.70220000     -75.16530000
H      -45.69690000     -30.80690000     -75.60570000
C      -41.66070000     -33.33170000     -73.22140000
H      -41.01580000     -34.18930000     -73.31550000
H      -41.13290000     -32.52030000     -73.71250000
S      -46.40180000     -30.26630000     -73.41210000
S      -41.69380000     -32.85480000     -71.43300000
C      -47.35010000     -31.31290000     -72.17040000
H      -47.96290000     -30.74060000     -71.52500000
H      -47.98990000     -31.97540000     -72.75520000
C      -42.93280000     -34.02290000     -70.66600000
H      -42.31000000     -34.85490000     -70.24580000
H      -43.61690000     -34.46280000     -71.38270000
C      -43.68490000     -33.16450000     -69.56380000
H      -42.97220000     -32.88630000     -68.76710000
H      -44.02120000     -32.21110000     -69.94760000
C      -46.35580000     -32.14530000     -71.33920000
H      -45.80530000     -31.43700000     -70.68800000
H      -45.57730000     -32.62510000     -72.04070000
C      -46.89660000     -33.19310000     -70.38690000
C      -48.20110000     -33.61400000     -70.42890000
C      -46.15990000     -33.84460000     -69.31140000
H      -48.92850000     -33.35440000     -71.17260000
C      -46.96160000     -34.79320000     -68.63710000
C      -44.80310000     -33.90010000     -68.83850000
C      -44.64800000     -34.72200000     -67.76150000
S      -48.61820000     -34.83370000     -69.19160000
S      -46.16640000     -35.40810000     -67.30680000
H      -43.82280000     -34.88390000     -67.07360000
