40
Properties=species:S:1:pos:R:3 #=T CELL(abcABC):=T 1.889726e+02=T 90.00000=T Traj:=T positionsangstrom=T Step:=T 0=T Bead:=T pbc="F F F"
C      -43.33910000     -34.87720000     -73.99100000
C      -42.96370000     -33.59340000     -73.64360000
C      -43.89370000     -32.60560000     -73.90620000
C      -45.13350000     -32.77060000     -74.45210000
C      -45.50910000     -34.05390000     -74.75660000
C      -44.58860000     -35.12390000     -74.47250000
H      -42.66700000     -35.70580000     -73.88370000
H      -43.63070000     -31.55780000     -73.65580000
H      -46.46560000     -34.13540000     -75.19990000
H      -44.72510000     -36.19270000     -74.74530000
C      -45.99360000     -31.61660000     -74.92730000
H      -46.93780000     -31.84800000     -75.40070000
H      -45.31050000     -31.14410000     -75.70290000
C      -41.55560000     -33.36880000     -73.05060000
H      -41.00900000     -34.23490000     -73.05650000
H      -41.05760000     -32.55690000     -73.59170000
S      -46.36690000     -30.47520000     -73.49690000
S      -41.64030000     -32.69290000     -71.32190000
C      -47.24640000     -31.72440000     -72.36480000
H      -48.17490000     -31.26070000     -72.06830000
H      -47.54370000     -32.59800000     -72.88240000
C      -43.07470000     -33.65520000     -70.54820000
H      -42.76240000     -34.70050000     -70.32710000
H      -43.82040000     -33.81800000     -71.41170000
C      -43.71530000     -32.91990000     -69.32050000
H      -42.85790000     -32.81690000     -68.60220000
H      -43.97200000     -31.85270000     -69.61180000
C      -46.41590000     -31.93020000     -71.09060000
H      -46.33040000     -30.91100000     -70.65010000
H      -45.42510000     -32.24780000     -71.39660000
C      -47.06020000     -32.92850000     -70.19210000
C      -48.42010000     -33.29910000     -70.25500000
C      -46.29520000     -33.71710000     -69.29600000
H      -49.20970000     -32.97640000     -70.94490000
C      -47.06540000     -34.71300000     -68.69460000
C      -44.87370000     -33.76250000     -68.84110000
C      -44.70820000     -34.80210000     -67.97810000
S      -48.73620000     -34.62910000     -69.18190000
S      -46.17460000     -35.67470000     -67.50440000
H      -43.69950000     -35.00590000     -67.57620000
