40
Properties=species:S:1:pos:R:3 #=T CELL(abcABC):=T 1.889726e+02=T 90.00000=T Traj:=T positionsangstrom=T Step:=T 0=T Bead:=T pbc="F F F"
C      -44.05370000     -34.85490000     -74.24710000
C      -43.35430000     -33.70760000     -73.80520000
C      -44.03970000     -32.49030000     -73.95580000
C      -45.23550000     -32.38760000     -74.69150000
C      -45.84780000     -33.52930000     -75.27220000
C      -45.32720000     -34.81920000     -74.90480000
H      -43.70470000     -35.90780000     -74.05650000
H      -43.57240000     -31.64570000     -73.59940000
H      -46.80880000     -33.41760000     -75.79070000
H      -45.65210000     -35.80750000     -75.25500000
C      -45.76910000     -31.04390000     -74.85220000
H      -46.64860000     -31.01960000     -75.48280000
H      -45.06910000     -30.41060000     -75.28540000
C      -41.92720000     -33.64590000     -73.12760000
H      -41.66510000     -34.70190000     -72.94900000
H      -41.23630000     -33.26760000     -73.85750000
S      -46.30920000     -30.36930000     -73.24730000
S      -41.95070000     -32.68810000     -71.60290000
C      -47.09980000     -31.64140000     -72.23980000
H      -48.00250000     -31.18120000     -71.84450000
H      -47.29710000     -32.64170000     -72.80930000
C      -43.10300000     -33.83210000     -70.70480000
H      -42.51240000     -34.72000000     -70.58150000
H      -43.89530000     -34.16610000     -71.38410000
C      -43.65340000     -33.11990000     -69.44350000
H      -42.76780000     -32.85510000     -68.84800000
H      -44.02900000     -32.19110000     -69.72580000
C      -46.17250000     -32.10090000     -71.14980000
H      -45.86170000     -31.26400000     -70.46230000
H      -45.24220000     -32.33140000     -71.63850000
C      -46.73630000     -33.18720000     -70.26310000
C      -48.01750000     -33.71030000     -70.38080000
C      -45.99760000     -33.97880000     -69.24720000
H      -48.78190000     -33.34170000     -71.06030000
C      -46.82560000     -34.84390000     -68.46620000
C      -44.67600000     -33.95150000     -68.68910000
C      -44.50550000     -34.78220000     -67.61770000
S      -48.44210000     -34.84310000     -69.11510000
S      -46.01040000     -35.50360000     -67.03050000
H      -43.56250000     -34.87900000     -67.05680000
