40
Properties=species:S:1:pos:R:3 #=T CELL(abcABC):=T 1.889726e+02=T 90.00000=T Traj:=T positionsangstrom=T Step:=T 0=T Bead:=T pbc="F F F"
C      -45.03610000     -33.94750000     -75.32180000
C      -46.01030000     -34.45640000     -74.51180000
C      -46.97960000     -33.59850000     -73.97160000
C      -46.96890000     -32.21660000     -74.15390000
C      -45.89670000     -31.74280000     -74.87310000
C      -44.93290000     -32.54750000     -75.42650000
H      -44.26650000     -34.52240000     -75.78000000
H      -47.75680000     -34.08880000     -73.41120000
H      -46.00190000     -30.62440000     -74.94390000
H      -44.11820000     -32.06920000     -75.99630000
C      -48.11090000     -31.31280000     -73.67300000
H      -49.00050000     -31.73750000     -73.24480000
H      -48.44410000     -30.65940000     -74.44360000
C      -45.96670000     -35.93510000     -74.07360000
H      -46.87180000     -36.52850000     -74.16390000
H      -45.20020000     -36.55810000     -74.59050000
S      -47.29720000     -30.14870000     -72.46540000
S      -45.51470000     -36.05940000     -72.23120000
C      -47.16970000     -31.09520000     -70.80780000
H      -47.11950000     -30.32090000     -70.04960000
H      -48.18920000     -31.57950000     -70.74740000
C      -43.72460000     -35.58150000     -72.23770000
H      -43.30050000     -35.96680000     -73.17530000
H      -43.39440000     -36.34090000     -71.50870000
C      -43.28830000     -34.14120000     -71.82920000
H      -42.23490000     -33.88780000     -72.12730000
H      -43.94960000     -33.44290000     -72.36660000
C      -46.00130000     -32.08000000     -70.82310000
H      -45.09570000     -31.62410000     -71.32870000
H      -46.31540000     -32.81570000     -71.54740000
C      -45.63160000     -32.68520000     -69.45600000
C      -46.35690000     -32.57750000     -68.29400000
C      -44.39910000     -33.41820000     -69.38760000
H      -47.25000000     -32.07540000     -68.08870000
C      -44.09560000     -33.70080000     -68.00830000
C      -43.36060000     -33.93780000     -70.29640000
C      -42.30000000     -34.56660000     -69.56250000
S      -45.37850000     -33.24700000     -66.92130000
S      -42.63210000     -34.59110000     -67.82840000
H      -41.58210000     -35.33370000     -69.98400000
