40
Properties=species:S:1:pos:R:3 #=T CELL(abcABC):=T 1.889726e+02=T 90.00000=T Traj:=T positionsangstrom=T Step:=T 0=T Bead:=T pbc="F F F"
C      -45.10230000     -33.74280000     -75.17030000
C      -46.12830000     -34.28320000     -74.31560000
C      -47.05130000     -33.42500000     -73.76050000
C      -47.06760000     -32.06160000     -74.02090000
C      -45.97700000     -31.56390000     -74.70080000
C      -45.04680000     -32.38460000     -75.36630000
H      -44.35530000     -34.41280000     -75.67140000
H      -47.83880000     -33.90970000     -73.17010000
H      -45.91160000     -30.48350000     -74.72790000
H      -44.25460000     -31.89870000     -75.94200000
C      -48.21000000     -31.22670000     -73.53350000
H      -48.96450000     -31.70290000     -73.03370000
H      -48.59610000     -30.55090000     -74.27710000
C      -45.97190000     -35.79830000     -74.05060000
H      -46.97160000     -36.26230000     -74.10630000
H      -45.35760000     -36.22080000     -74.82740000
S      -47.60550000     -30.10010000     -72.22640000
S      -45.28630000     -36.01090000     -72.29750000
C      -46.94650000     -31.08270000     -70.70330000
H      -46.54390000     -30.35830000     -69.94980000
H      -47.82830000     -31.48860000     -70.20650000
C      -43.51830000     -35.42530000     -72.54050000
H      -43.24410000     -35.39190000     -73.57360000
H      -42.78630000     -36.17780000     -72.08590000
C      -43.24260000     -34.05230000     -71.83350000
H      -42.16250000     -33.89230000     -72.15220000
H      -43.86520000     -33.19490000     -72.22410000
C      -45.97300000     -32.20050000     -70.93400000
H      -45.08290000     -31.79230000     -71.35340000
H      -46.34980000     -32.89570000     -71.70980000
C      -45.59560000     -32.80270000     -69.62730000
C      -46.19930000     -32.56460000     -68.41680000
C      -44.41570000     -33.69400000     -69.48010000
H      -47.08440000     -31.89290000     -68.13170000
C      -44.14020000     -34.00920000     -68.21170000
C      -43.30710000     -34.09500000     -70.35260000
C      -42.28580000     -34.73370000     -69.57950000
S      -45.28260000     -33.31330000     -67.07260000
S      -42.71420000     -34.85400000     -67.90010000
H      -41.39370000     -34.97180000     -70.06430000
