40
Properties=species:S:1:pos:R:3 #=T CELL(abcABC):=T 1.889726e+02=T 90.00000=T Traj:=T positionsangstrom=T Step:=T 0=T Bead:=T pbc="F F F"
C      -45.30830000     -33.56010000     -75.19250000
C      -46.09230000     -34.20220000     -74.22600000
C      -47.10030000     -33.42090000     -73.65460000
C      -47.27300000     -32.05560000     -73.89280000
C      -46.37040000     -31.43870000     -74.79850000
C      -45.36390000     -32.18470000     -75.34540000
H      -44.59070000     -34.15760000     -75.70100000
H      -47.76090000     -33.97590000     -72.93900000
H      -46.34820000     -30.36790000     -74.97630000
H      -44.68020000     -31.70900000     -76.05260000
C      -48.33280000     -31.09120000     -73.29730000
H      -49.20260000     -31.54510000     -72.80680000
H      -48.72040000     -30.50180000     -74.11830000
C      -45.94130000     -35.63770000     -73.97240000
H      -46.93470000     -36.07560000     -73.84160000
H      -45.49620000     -36.25070000     -74.77610000
S      -47.50850000     -29.98710000     -72.05640000
S      -44.98150000     -36.12060000     -72.51010000
C      -47.12470000     -31.26000000     -70.71700000
H      -47.27780000     -30.87760000     -69.73900000
H      -47.92550000     -32.01130000     -70.85980000
C      -43.38310000     -35.28000000     -72.65810000
H      -43.21720000     -35.18480000     -73.74070000
H      -42.68050000     -35.95690000     -72.28430000
C      -43.25700000     -33.97570000     -71.90760000
H      -42.30760000     -33.50250000     -72.19030000
H      -44.09330000     -33.32170000     -72.21350000
C      -45.73650000     -31.88180000     -70.79820000
H      -45.09060000     -30.99270000     -70.85420000
H      -45.65450000     -32.40800000     -71.70420000
C      -45.41880000     -32.69100000     -69.55750000
C      -46.10210000     -32.56300000     -68.35850000
C      -44.17940000     -33.52660000     -69.41670000
H      -46.88070000     -31.78070000     -68.11920000
C      -44.08690000     -34.02100000     -68.12450000
C      -43.29100000     -34.13820000     -70.39260000
C      -42.44750000     -35.07390000     -69.75580000
S      -45.23890000     -33.33590000     -67.04830000
S      -42.86120000     -35.30100000     -68.08110000
H      -41.72420000     -35.67860000     -70.28970000
