40
Properties=species:S:1:pos:R:3 #=T CELL(abcABC):=T 1.889726e+02=T 90.00000=T Traj:=T positionsangstrom=T Step:=T 0=T Bead:=T pbc="F F F"
C      -46.88310000     -34.76880000     -68.10780000
C      -47.66080000     -33.89200000     -68.90270000
C      -48.16170000     -34.35680000     -70.10250000
C      -47.89990000     -35.63760000     -70.59300000
C      -47.27560000     -36.52990000     -69.75080000
C      -46.73450000     -36.12120000     -68.50090000
H      -46.66230000     -34.43670000     -67.10340000
H      -48.63360000     -33.56890000     -70.74760000
H      -46.96330000     -37.56000000     -70.09930000
H      -46.24400000     -36.79210000     -67.79070000
C      -48.32420000     -36.07130000     -72.00440000
H      -48.90840000     -35.38410000     -72.55110000
H      -49.03270000     -36.95080000     -71.93940000
C      -47.98800000     -32.47990000     -68.47130000
H      -48.70500000     -32.09880000     -69.13350000
H      -48.50620000     -32.51920000     -67.52500000
S      -46.88840000     -36.59580000     -73.03410000
S      -46.61940000     -31.19630000     -68.21320000
C      -45.64030000     -35.33050000     -72.53460000
H      -45.61430000     -35.39120000     -71.42080000
H      -44.59570000     -35.56880000     -72.80780000
C      -45.60980000     -31.07330000     -69.73780000
H      -44.94170000     -30.25680000     -69.52470000
H      -46.20930000     -30.75420000     -70.60140000
C      -44.84110000     -32.31300000     -70.06550000
H      -44.37900000     -32.60580000     -69.11380000
H      -45.43000000     -33.15760000     -70.32430000
C      -45.84360000     -33.84430000     -72.96240000
H      -46.30710000     -33.27430000     -72.14170000
H      -46.48300000     -33.80240000     -73.87530000
C      -44.46700000     -33.23480000     -73.30470000
C      -43.90310000     -33.28650000     -74.54220000
C      -43.64180000     -32.45860000     -72.38820000
H      -44.44680000     -33.79430000     -75.34610000
C      -42.53950000     -32.00650000     -73.08420000
C      -43.70930000     -32.03610000     -71.03490000
C      -42.67190000     -31.23710000     -70.70890000
S      -42.39740000     -32.44790000     -74.69250000
S      -41.62850000     -30.86350000     -72.08630000
H      -42.50870000     -30.83300000     -69.75950000
