40
Properties=species:S:1:pos:R:3 #=T CELL(abcABC):=T 1.889726e+02=T 90.00000=T Traj:=T positionsangstrom=T Step:=T 0=T Bead:=T pbc="F F F"
C      -47.05100000     -34.71320000     -67.69720000
C      -47.72500000     -33.79210000     -68.49240000
C      -48.10880000     -34.12240000     -69.81210000
C      -47.79870000     -35.35780000     -70.32980000
C      -46.97580000     -36.18200000     -69.60250000
C      -46.64380000     -35.95050000     -68.27340000
H      -46.69870000     -34.40430000     -66.68200000
H      -48.50510000     -33.32870000     -70.39140000
H      -46.57300000     -36.99660000     -70.16800000
H      -45.91500000     -36.60310000     -67.75790000
C      -48.35280000     -35.70820000     -71.73800000
H      -48.92680000     -34.83020000     -72.14770000
H      -49.09200000     -36.51330000     -71.57590000
C      -47.82390000     -32.31330000     -67.96970000
H      -48.54560000     -31.85820000     -68.55870000
H      -48.15540000     -32.35540000     -66.97180000
S      -47.17280000     -36.48260000     -72.88380000
S      -46.24530000     -31.39870000     -68.06410000
C      -45.63940000     -35.37740000     -72.75230000
H      -45.36550000     -35.26960000     -71.69950000
H      -44.82590000     -35.89450000     -73.23120000
C      -45.73580000     -31.42670000     -69.79460000
H      -45.26370000     -30.39450000     -69.96660000
H      -46.66680000     -31.34970000     -70.38080000
C      -44.79330000     -32.51910000     -70.20740000
H      -44.17960000     -32.72810000     -69.32950000
H      -45.31890000     -33.43190000     -70.51520000
C      -45.84750000     -33.99120000     -73.41310000
H      -46.65760000     -33.45620000     -72.90510000
H      -46.27210000     -34.14210000     -74.47620000
C      -44.52440000     -33.34370000     -73.56440000
C      -44.01240000     -33.30440000     -74.82600000
C      -43.74890000     -32.53440000     -72.64580000
H      -44.32000000     -33.76660000     -75.75110000
C      -42.56340000     -32.01300000     -73.22420000
C      -43.81510000     -32.08440000     -71.28800000
C      -42.78990000     -31.27430000     -70.87990000
S      -42.44950000     -32.51200000     -74.94750000
S      -41.62600000     -30.98140000     -72.21850000
H      -42.72080000     -30.78150000     -69.90790000
