40
Properties=species:S:1:pos:R:3 #=T CELL(abcABC):=T 1.889726e+02=T 90.00000=T Traj:=T positionsangstrom=T Step:=T 0=T Bead:=T pbc="F F F"
C      -47.31250000     -34.45910000     -68.44820000
C      -48.06420000     -33.71470000     -69.35900000
C      -48.40570000     -34.42020000     -70.52820000
C      -47.84470000     -35.70590000     -70.83780000
C      -47.22860000     -36.45580000     -69.81770000
C      -46.89970000     -35.76930000     -68.64970000
H      -47.09430000     -33.99530000     -67.49680000
H      -48.87930000     -33.85430000     -71.32430000
H      -46.85270000     -37.40090000     -69.99770000
H      -46.45610000     -36.28610000     -67.79320000
C      -48.11890000     -36.28120000     -72.23800000
H      -48.67900000     -35.43800000     -72.73430000
H      -48.71760000     -37.15440000     -72.19520000
C      -48.32180000     -32.26860000     -69.05110000
H      -48.46710000     -31.68900000     -69.97410000
H      -49.16790000     -32.03620000     -68.47390000
S      -46.60060000     -36.78480000     -73.21520000
S      -46.90580000     -31.42020000     -68.11160000
C      -45.29230000     -35.51190000     -72.70770000
H      -44.90960000     -35.75180000     -71.67990000
H      -44.44170000     -35.77470000     -73.39810000
C      -45.71920000     -31.11250000     -69.52150000
H      -45.02020000     -30.39720000     -69.18970000
H      -46.23960000     -30.89470000     -70.44490000
C      -44.85290000     -32.38500000     -69.83730000
H      -44.45910000     -32.85780000     -68.96820000
H      -45.48430000     -33.08100000     -70.39250000
C      -45.58720000     -33.98730000     -72.79160000
H      -46.05700000     -33.67680000     -71.83880000
H      -46.35210000     -33.89270000     -73.58730000
C      -44.40290000     -33.16500000     -73.17330000
C      -43.84880000     -33.18700000     -74.42520000
C      -43.65890000     -32.31220000     -72.25720000
H      -44.11200000     -33.89080000     -75.14770000
C      -42.47180000     -31.83220000     -72.82940000
C      -43.71890000     -32.00490000     -70.81890000
C      -42.58560000     -31.32930000     -70.42990000
S      -42.37970000     -32.18960000     -74.53350000
S      -41.47590000     -30.98780000     -71.74860000
H      -42.21550000     -31.05750000     -69.41890000
