40
Properties=species:S:1:pos:R:3 #=T CELL(abcABC):=T 1.889726e+02=T 90.00000=T Traj:=T positionsangstrom=T Step:=T 0=T Bead:=T pbc="F F F"
C      -47.11840000     -34.65340000     -68.30060000
C      -47.81460000     -33.82250000     -69.16940000
C      -48.07360000     -34.29560000     -70.47420000
C      -47.88890000     -35.63220000     -70.76320000
C      -47.23000000     -36.49280000     -69.87440000
C      -46.84260000     -36.00010000     -68.62910000
H      -46.69760000     -34.19220000     -67.44730000
H      -48.59550000     -33.61960000     -71.11560000
H      -47.21540000     -37.55020000     -70.10630000
H      -46.13370000     -36.50150000     -68.01460000
C      -48.33790000     -36.12120000     -72.09560000
H      -48.89260000     -35.35790000     -72.62440000
H      -48.92940000     -37.08740000     -72.01330000
C      -48.17350000     -32.42980000     -68.83230000
H      -48.62830000     -31.92740000     -69.76100000
H      -48.91250000     -32.52670000     -68.00150000
S      -46.84590000     -36.62320000     -73.02780000
S      -46.87010000     -31.27570000     -68.11330000
C      -45.35760000     -35.50970000     -72.59240000
H      -45.14860000     -35.63520000     -71.57210000
H      -44.62790000     -35.98050000     -73.21200000
C      -45.60840000     -31.12290000     -69.48100000
H      -45.06140000     -30.21520000     -69.24020000
H      -46.18760000     -30.77430000     -70.38310000
C      -44.64390000     -32.31010000     -69.76130000
H      -44.12010000     -32.60970000     -68.83220000
H      -45.29400000     -33.18910000     -70.04410000
C      -45.66160000     -34.06060000     -73.03290000
H      -46.37510000     -33.62140000     -72.35830000
H      -46.14110000     -34.09740000     -74.00460000
C      -44.42790000     -33.19860000     -73.23040000
C      -43.91220000     -33.18620000     -74.48480000
C      -43.65840000     -32.35770000     -72.27750000
H      -44.44900000     -33.62230000     -75.32290000
C      -42.53300000     -31.93070000     -72.97000000
C      -43.67120000     -31.96140000     -70.89880000
C      -42.61980000     -31.17130000     -70.54170000
S      -42.45830000     -32.36340000     -74.67070000
S      -41.46850000     -30.98410000     -71.92570000
H      -42.33390000     -30.71590000     -69.62860000
