40
Properties=species:S:1:pos:R:3 #=T CELL(abcABC):=T 1.889726e+02=T 90.00000=T Traj:=T positionsangstrom=T Step:=T 0=T Bead:=T pbc="F F F"
C      -47.94160000     -34.69470000     -69.04350000
C      -48.52030000     -34.05130000     -70.18410000
C      -48.51580000     -34.64260000     -71.47780000
C      -47.71410000     -35.87080000     -71.56600000
C      -46.98470000     -36.34450000     -70.46760000
C      -47.21600000     -35.83860000     -69.21920000
H      -47.88580000     -34.16580000     -68.08780000
H      -49.03520000     -34.25740000     -72.30850000
H      -46.28260000     -37.16640000     -70.51620000
H      -46.62910000     -36.33190000     -68.45350000
C      -47.46690000     -36.39190000     -72.98490000
H      -47.76530000     -35.58070000     -73.70300000
H      -47.94120000     -37.33910000     -73.17800000
C      -49.18500000     -32.78100000     -70.00890000
H      -49.42670000     -32.35750000     -70.95490000
H      -50.09000000     -32.84870000     -69.34920000
S      -45.60330000     -36.70060000     -73.22850000
S      -48.11790000     -31.40790000     -69.20490000
C      -44.60650000     -35.26330000     -72.54040000
H      -44.54640000     -35.18800000     -71.38470000
H      -43.58250000     -35.38740000     -72.90260000
C      -46.54930000     -31.47380000     -70.34120000
H      -46.06130000     -30.58250000     -70.08430000
H      -46.84940000     -31.42010000     -71.41620000
C      -45.53730000     -32.56040000     -69.96470000
H      -45.48020000     -32.60400000     -68.84500000
H      -45.85630000     -33.52720000     -70.36510000
C      -45.07020000     -33.90520000     -73.10750000
H      -45.92280000     -33.55620000     -72.48920000
H      -45.40750000     -34.02140000     -74.06630000
C      -43.86120000     -32.97060000     -72.95930000
C      -42.85150000     -32.85490000     -73.85280000
C      -43.42950000     -32.43610000     -71.66290000
H      -42.91970000     -33.19710000     -74.84830000
C      -42.18370000     -31.82080000     -71.72250000
C      -44.17200000     -32.09480000     -70.46390000
C      -43.36350000     -31.28930000     -69.65750000
S      -41.42600000     -31.92330000     -73.28450000
S      -41.85090000     -30.79200000     -70.33970000
H      -43.55870000     -30.88940000     -68.71480000
