40
Properties=species:S:1:pos:R:3 #=T CELL(abcABC):=T 1.889726e+02=T 90.00000=T Traj:=T positionsangstrom=T Step:=T 0=T Bead:=T pbc="F F F"
C      -46.55210000     -35.77990000     -73.92760000
C      -46.75960000     -36.14540000     -72.58820000
C      -45.63360000     -36.45760000     -71.82540000
C      -44.31740000     -36.55790000     -72.36550000
C      -44.25700000     -36.29660000     -73.71820000
C      -45.33000000     -35.88970000     -74.54260000
H      -47.39560000     -35.62610000     -74.50340000
H      -45.77480000     -36.85810000     -70.80000000
H      -43.22440000     -36.23450000     -74.20580000
H      -45.06540000     -35.60330000     -75.54340000
C      -43.16650000     -36.86310000     -71.44590000
H      -42.48970000     -37.54860000     -71.88960000
H      -43.47270000     -37.14340000     -70.43890000
C      -48.10550000     -36.09070000     -71.96410000
H      -48.74890000     -36.49290000     -72.64440000
H      -48.09770000     -36.68360000     -71.02090000
S      -42.02750000     -35.39170000     -71.17110000
S      -48.75140000     -34.37870000     -71.55830000
C      -43.01900000     -33.81920000     -71.26450000
H      -42.51980000     -33.29870000     -72.04120000
H      -43.96510000     -34.16900000     -71.51240000
C      -47.95800000     -34.01220000     -69.89790000
H      -48.01650000     -34.83590000     -69.30480000
H      -48.48040000     -33.20560000     -69.37520000
C      -46.49660000     -33.64230000     -70.11350000
H      -45.90460000     -33.94150000     -69.25280000
H      -46.07790000     -34.17050000     -70.90170000
C      -43.09360000     -33.11780000     -69.91000000
H      -42.08870000     -33.00480000     -69.59790000
H      -43.55850000     -33.82140000     -69.23250000
C      -43.65330000     -31.77810000     -70.22160000
C      -42.83230000     -30.71810000     -70.26540000
C      -45.06520000     -31.44180000     -70.31000000
H      -41.75010000     -30.80450000     -70.25970000
C      -45.23860000     -30.08030000     -70.66640000
C      -46.30880000     -32.14840000     -70.39560000
C      -47.35940000     -31.31280000     -70.71660000
S      -43.68190000     -29.19880000     -70.57760000
S      -46.92670000     -29.57130000     -70.86750000
H      -48.39800000     -31.61960000     -70.49240000
