40
Properties=species:S:1:pos:R:3 #=T CELL(abcABC):=T 1.889726e+02=T 90.00000=T Traj:=T positionsangstrom=T Step:=T 0=T Bead:=T pbc="F F F"
C      -48.13090000     -34.89940000     -68.40650000
C      -48.41100000     -34.05090000     -69.45990000
C      -48.21980000     -34.40120000     -70.79930000
C      -47.70340000     -35.70300000     -71.06850000
C      -47.43660000     -36.52590000     -69.95370000
C      -47.67040000     -36.17030000     -68.67800000
H      -48.31990000     -34.64950000     -67.36360000
H      -48.36620000     -33.71220000     -71.60350000
H      -47.12080000     -37.56180000     -70.16200000
H      -47.45390000     -36.84940000     -67.89870000
C      -47.69430000     -36.11660000     -72.47760000
H      -48.02400000     -35.24790000     -73.15110000
H      -48.32640000     -36.95280000     -72.72870000
C      -48.93010000     -32.68540000     -69.20500000
H      -49.62810000     -32.44650000     -70.06420000
H      -49.46140000     -32.53500000     -68.26890000
S      -46.03030000     -36.66650000     -73.15690000
S      -47.62720000     -31.29570000     -69.05220000
C      -44.83090000     -35.34480000     -72.73960000
H      -44.82290000     -35.23370000     -71.70260000
H      -43.76060000     -35.70250000     -72.95750000
C      -46.29680000     -31.40750000     -70.42980000
H      -45.70520000     -30.52220000     -70.30380000
H      -46.76430000     -31.27170000     -71.42460000
C      -45.35440000     -32.57000000     -70.31210000
H      -45.27500000     -32.76790000     -69.20030000
H      -45.58680000     -33.49310000     -70.77850000
C      -45.07270000     -34.02230000     -73.49940000
H      -46.03640000     -33.62290000     -73.16070000
H      -45.12250000     -34.28990000     -74.55740000
C      -43.87760000     -33.18540000     -73.20390000
C      -42.93770000     -32.92130000     -74.20000000
C      -43.45040000     -32.35280000     -72.02850000
H      -43.10400000     -33.45710000     -75.08740000
C      -42.26000000     -31.70340000     -72.23080000
C      -44.02920000     -32.08630000     -70.73970000
C      -43.27310000     -31.19350000     -70.02930000
S      -41.43760000     -32.02420000     -73.73500000
S      -41.71550000     -30.79570000     -70.84460000
H      -43.43740000     -30.77400000     -69.00250000
