40
Properties=species:S:1:pos:R:3 #=T CELL(abcABC):=T 1.889726e+02=T 90.00000=T Traj:=T positionsangstrom=T Step:=T 0=T Bead:=T pbc="F F F"
C      -48.20350000     -34.83150000     -69.17940000
C      -48.57240000     -34.08910000     -70.30530000
C      -48.18000000     -34.63940000     -71.56510000
C      -47.47750000     -35.82730000     -71.64750000
C      -47.08980000     -36.50210000     -70.45800000
C      -47.51240000     -36.01360000     -69.23580000
H      -48.35710000     -34.50300000     -68.17020000
H      -48.44750000     -34.11900000     -72.46020000
H      -46.63990000     -37.47320000     -70.35230000
H      -47.36460000     -36.61710000     -68.32830000
C      -47.16580000     -36.44240000     -73.02320000
H      -47.54010000     -35.73060000     -73.76690000
H      -47.62600000     -37.40640000     -73.08150000
C      -49.11790000     -32.63590000     -70.33230000
H      -49.20350000     -32.49110000     -71.45170000
H      -50.08940000     -32.57050000     -69.91500000
S      -45.47090000     -36.83020000     -73.53260000
S      -48.27250000     -31.25160000     -69.53450000
C      -44.36260000     -35.59650000     -72.84230000
H      -44.18960000     -35.86100000     -71.81700000
H      -43.41770000     -35.62950000     -73.40180000
C      -46.61540000     -31.20970000     -70.38490000
H      -46.18680000     -30.20580000     -70.25300000
H      -46.74420000     -31.45690000     -71.48000000
C      -45.67320000     -32.27280000     -69.73840000
H      -45.63990000     -32.27380000     -68.67570000
H      -45.85590000     -33.27910000     -70.10790000
C      -44.95100000     -34.16140000     -72.79410000
H      -45.63030000     -34.09590000     -71.88950000
H      -45.54520000     -33.98420000     -73.69920000
C      -43.75160000     -33.18470000     -72.64900000
C      -42.64290000     -33.15950000     -73.53980000
C      -43.51980000     -32.26120000     -71.51310000
H      -42.62020000     -33.70360000     -74.45240000
C      -42.30960000     -31.51990000     -71.60660000
C      -44.20420000     -31.99150000     -70.25700000
C      -43.45410000     -31.14670000     -69.45170000
S      -41.50620000     -31.90540000     -73.11390000
S      -41.90160000     -30.70540000     -70.13470000
H      -43.62760000     -30.80330000     -68.51180000
