40
Properties=species:S:1:pos:R:3 #=T CELL(abcABC):=T 1.889726e+02=T 90.00000=T Traj:=T positionsangstrom=T Step:=T 0=T Bead:=T pbc="F F F"
C      -48.51940000     -34.99100000     -69.53530000
C      -48.73920000     -34.17610000     -70.65300000
C      -48.31980000     -34.69560000     -71.86710000
C      -47.58640000     -35.96070000     -71.96670000
C      -47.35370000     -36.61280000     -70.75100000
C      -47.86650000     -36.17410000     -69.54870000
H      -49.00390000     -34.76340000     -68.57660000
H      -48.38830000     -34.02920000     -72.78050000
H      -47.00740000     -37.64820000     -70.73720000
H      -47.81170000     -36.76260000     -68.66460000
C      -47.11770000     -36.47430000     -73.27430000
H      -47.28860000     -35.74370000     -74.05260000
H      -47.53010000     -37.45450000     -73.64660000
C      -49.27530000     -32.72670000     -70.56850000
H      -49.36680000     -32.27500000     -71.53760000
H      -50.31320000     -32.80930000     -70.05930000
S      -45.34040000     -36.90090000     -73.12560000
S      -48.33420000     -31.57840000     -69.44940000
C      -44.20750000     -35.48280000     -72.77780000
H      -43.81140000     -35.52500000     -71.73710000
H      -43.40220000     -35.54200000     -73.39930000
C      -46.77670000     -31.46710000     -70.47710000
H      -46.80180000     -30.45680000     -70.82010000
H      -46.89430000     -32.11630000     -71.30550000
C      -45.55210000     -31.99530000     -69.65160000
H      -45.66740000     -31.71600000     -68.57910000
H      -45.76150000     -33.04830000     -69.60290000
C      -44.79590000     -34.05180000     -72.84770000
H      -45.57140000     -33.91440000     -72.11380000
H      -45.20840000     -33.85300000     -73.83150000
C      -43.66000000     -33.08500000     -72.53020000
C      -42.49620000     -33.09540000     -73.34330000
C      -43.46460000     -32.10810000     -71.41400000
H      -42.27300000     -33.76640000     -74.20190000
C      -42.26880000     -31.45660000     -71.51930000
C      -44.20340000     -31.67900000     -70.16220000
C      -43.49490000     -30.72200000     -69.50650000
S      -41.25890000     -31.99020000     -72.81410000
S      -41.84290000     -30.44290000     -70.14760000
H      -43.88950000     -30.11240000     -68.65420000
