40
Properties=species:S:1:pos:R:3 #=T CELL(abcABC):=T 1.889726e+02=T 90.00000=T Traj:=T positionsangstrom=T Step:=T 0=T Bead:=T pbc="F F F"
C      -45.15790000     -32.84500000     -75.06460000
C      -44.39040000     -32.15560000     -74.09330000
C      -45.07870000     -31.14250000     -73.36280000
C      -46.45510000     -30.92100000     -73.49360000
C      -47.21910000     -31.76100000     -74.37270000
C      -46.56720000     -32.70650000     -75.15280000
H      -44.67760000     -33.69860000     -75.61380000
H      -44.58490000     -30.60860000     -72.58810000
H      -48.22990000     -31.64370000     -74.51710000
H      -47.21670000     -33.22520000     -75.91080000
C      -47.09370000     -29.85450000     -72.68480000
H      -48.14010000     -29.85670000     -72.79400000
H      -46.80740000     -28.86170000     -73.08440000
C      -42.90420000     -32.38050000     -74.17000000
H      -42.67100000     -33.31290000     -74.69000000
H      -42.47850000     -31.51540000     -74.69590000
S      -46.50240000     -29.84040000     -70.91900000
S      -42.12760000     -32.53560000     -72.51530000
C      -47.07810000     -31.44280000     -70.29510000
H      -47.49620000     -31.34680000     -69.30700000
H      -47.80740000     -31.86980000     -71.03760000
C      -42.99110000     -34.01170000     -71.80770000
H      -42.55150000     -34.96960000     -72.20330000
H      -44.05870000     -33.77250000     -72.00210000
C      -42.86460000     -34.16190000     -70.24900000
H      -41.93240000     -34.54970000     -69.96870000
H      -43.15720000     -33.17130000     -69.83940000
C      -45.84100000     -32.40570000     -70.22930000
H      -45.14240000     -31.92190000     -69.51480000
H      -45.25760000     -32.47370000     -71.17200000
C      -46.14810000     -33.77500000     -69.61820000
C      -47.39640000     -34.05720000     -69.25490000
C      -45.23830000     -34.94220000     -69.63470000
H      -48.08180000     -33.22720000     -69.15040000
C      -45.94700000     -36.09870000     -69.20550000
C      -43.83070000     -35.19240000     -69.75290000
C      -43.52010000     -36.48210000     -69.47930000
S      -47.72930000     -35.76320000     -68.97070000
S      -44.88220000     -37.52240000     -69.13940000
H      -42.52630000     -36.94890000     -69.70200000
