40
Properties=species:S:1:pos:R:3 #=T CELL(abcABC):=T 1.889726e+02=T 90.00000=T Traj:=T positionsangstrom=T Step:=T 0=T Bead:=T pbc="F F F"
C      -45.04620000     -33.00330000     -74.96500000
C      -44.35140000     -32.09920000     -74.15630000
C      -44.97660000     -30.97310000     -73.64210000
C      -46.35760000     -30.92180000     -73.60850000
C      -47.09540000     -31.86060000     -74.43040000
C      -46.40470000     -32.76660000     -75.20310000
H      -44.47880000     -33.57260000     -75.60800000
H      -44.43780000     -30.21100000     -73.15500000
H      -48.17810000     -31.87860000     -74.48140000
H      -46.97070000     -33.32880000     -75.94880000
C      -47.01100000     -29.82550000     -72.73730000
H      -48.12750000     -30.00090000     -72.84400000
H      -46.78240000     -28.81270000     -73.06800000
C      -42.81910000     -32.17290000     -74.09760000
H      -42.50040000     -32.97270000     -74.80480000
H      -42.29530000     -31.26370000     -74.35920000
S      -46.62630000     -29.73940000     -70.91650000
S      -42.18320000     -32.44400000     -72.37900000
C      -47.02790000     -31.39060000     -70.19840000
H      -47.53830000     -31.30800000     -69.23980000
H      -47.72830000     -31.73310000     -70.97740000
C      -43.03610000     -33.98560000     -71.74810000
H      -42.62630000     -34.90180000     -72.23750000
H      -44.06860000     -33.89420000     -72.15370000
C      -42.97000000     -34.02160000     -70.21750000
H      -41.95670000     -34.19800000     -69.95880000
H      -43.12920000     -33.06710000     -69.71310000
C      -45.90120000     -32.44050000     -70.29010000
H      -45.08710000     -32.07960000     -69.69990000
H      -45.50980000     -32.39770000     -71.34160000
C      -46.32450000     -33.86960000     -69.73610000
C      -47.63440000     -34.30630000     -69.51280000
C      -45.31460000     -34.96890000     -69.62910000
H      -48.45580000     -33.68490000     -69.32570000
C      -45.91750000     -36.14660000     -69.20750000
C      -43.90000000     -35.12150000     -69.72230000
C      -43.45990000     -36.41090000     -69.47660000
S      -47.67590000     -36.06100000     -68.95370000
S      -44.83720000     -37.46500000     -69.02690000
H      -42.43700000     -36.76530000     -69.57060000
