40
Properties=species:S:1:pos:R:3 #=T CELL(abcABC):=T 1.889726e+02=T 90.00000=T Traj:=T positionsangstrom=T Step:=T 0=T Bead:=T pbc="F F F"
C      -45.39410000     -33.17890000     -74.73620000
C      -44.45190000     -32.15640000     -74.32220000
C      -44.99250000     -31.08670000     -73.64270000
C      -46.34200000     -31.06970000     -73.29300000
C      -47.27000000     -32.00250000     -73.81560000
C      -46.79870000     -33.04460000     -74.56180000
H      -44.95120000     -34.18400000     -75.09770000
H      -44.30890000     -30.33740000     -73.32720000
H      -48.30340000     -32.00630000     -73.54930000
H      -47.53100000     -33.89550000     -74.80420000
C      -46.87480000     -29.83480000     -72.43610000
H      -47.95100000     -29.91090000     -72.44360000
H      -46.56160000     -28.89760000     -72.83890000
C      -43.00320000     -32.32840000     -74.58640000
H      -42.89140000     -33.16890000     -75.22430000
H      -42.53820000     -31.50400000     -75.08100000
S      -46.07090000     -29.73510000     -70.82550000
S      -42.22600000     -32.65960000     -72.89730000
C      -46.67140000     -31.16480000     -69.91360000
H      -46.40460000     -30.94590000     -68.84800000
H      -47.81000000     -31.20870000     -69.91210000
C      -43.40160000     -33.87850000     -72.22550000
H      -43.57920000     -34.71890000     -72.92810000
H      -44.49030000     -33.54810000     -72.30190000
C      -43.00430000     -34.24290000     -70.77490000
H      -41.99470000     -34.66300000     -70.73020000
H      -43.06350000     -33.35150000     -70.11010000
C      -46.14680000     -32.47790000     -70.44000000
H      -45.13290000     -32.37140000     -70.73250000
H      -46.65350000     -32.59100000     -71.37430000
C      -46.34290000     -33.73990000     -69.66140000
C      -47.48890000     -34.05250000     -68.97200000
C      -45.34940000     -34.85170000     -69.69830000
H      -48.26880000     -33.42590000     -68.58380000
C      -45.93720000     -35.96040000     -69.09910000
C      -43.96070000     -35.16270000     -70.14040000
C      -43.57710000     -36.50260000     -69.94360000
S      -47.53070000     -35.74390000     -68.51870000
S      -44.86120000     -37.34920000     -69.16880000
H      -42.64800000     -37.01410000     -70.09910000
