40
Properties=species:S:1:pos:R:3 #=T CELL(abcABC):=T 1.889726e+02=T 90.00000=T Traj:=T positionsangstrom=T Step:=T 0=T Bead:=T pbc="F F F"
C      -40.80300000     -33.09870000     -71.44270000
C      -41.84960000     -33.31100000     -72.32500000
C      -42.73690000     -32.27340000     -72.57200000
C      -42.70300000     -31.08450000     -71.84820000
C      -41.66350000     -30.98740000     -70.93190000
C      -40.69710000     -31.93220000     -70.68230000
H      -40.05460000     -33.82980000     -71.24050000
H      -43.53250000     -32.28360000     -73.38190000
H      -41.66700000     -30.10930000     -70.33500000
H      -39.79140000     -31.75700000     -70.07330000
C      -43.68000000     -29.96540000     -72.06700000
H      -44.36670000     -30.23190000     -72.83530000
H      -43.17100000     -29.05200000     -72.44150000
C      -42.05140000     -34.65570000     -73.03160000
H      -42.80620000     -34.64640000     -73.82750000
H      -41.14600000     -35.01580000     -73.48240000
S      -44.71390000     -29.52450000     -70.63620000
S      -42.56180000     -35.93720000     -71.84720000
C      -46.25140000     -30.46820000     -70.87260000
H      -46.89110000     -30.31080000     -69.95570000
H      -46.97710000     -29.99520000     -71.57690000
C      -44.20130000     -35.42040000     -71.25140000
H      -44.14900000     -34.47380000     -70.72320000
H      -44.45430000     -36.23910000     -70.51380000
C      -45.25260000     -35.23350000     -72.34080000
H      -45.13740000     -34.35470000     -72.93510000
H      -45.23580000     -36.05450000     -73.04010000
C      -46.15140000     -31.98860000     -71.11450000
H      -45.37910000     -32.37510000     -70.45370000
H      -45.96140000     -32.32450000     -72.11180000
C      -47.40870000     -32.75470000     -70.84080000
C      -48.58280000     -32.38880000     -70.26380000
C      -47.50360000     -34.23540000     -71.16740000
H      -48.77440000     -31.37700000     -69.86010000
C      -48.72710000     -34.76490000     -70.76100000
C      -46.67680000     -35.26270000     -71.82060000
C      -47.33600000     -36.50950000     -71.77330000
S      -49.87480000     -33.58920000     -70.06150000
S      -48.89300000     -36.45500000     -71.02480000
H      -46.94320000     -37.51140000     -71.93380000
