40
Properties=species:S:1:pos:R:3 #=T CELL(abcABC):=T 1.889726e+02=T 90.00000=T Traj:=T positionsangstrom=T Step:=T 0=T Bead:=T pbc="F F F"
C      -41.13720000     -33.74160000     -71.50260000
C      -42.03960000     -33.63200000     -72.55130000
C      -42.80280000     -32.45790000     -72.74160000
C      -42.68430000     -31.39960000     -71.82960000
C      -41.69800000     -31.51520000     -70.77380000
C      -40.93380000     -32.67220000     -70.62560000
H      -40.54450000     -34.63810000     -71.41110000
H      -43.41390000     -32.36340000     -73.64410000
H      -41.63720000     -30.66190000     -70.11260000
H      -40.14870000     -32.72140000     -69.88990000
C      -43.41900000     -30.16740000     -71.97710000
H      -44.04020000     -30.32550000     -72.87710000
H      -42.74940000     -29.29130000     -72.17570000
C      -42.24970000     -34.81030000     -73.49550000
H      -42.87800000     -34.54530000     -74.36010000
H      -41.40110000     -35.23870000     -73.94620000
S      -44.31300000     -29.60970000     -70.46780000
S      -42.87670000     -36.24890000     -72.50980000
C      -45.82460000     -30.61080000     -70.62460000
H      -46.58080000     -30.01500000     -69.97410000
H      -46.27140000     -30.36870000     -71.63050000
C      -44.37480000     -35.73850000     -71.61010000
H      -44.22310000     -35.02750000     -70.82530000
H      -44.70290000     -36.68010000     -71.12770000
C      -45.47960000     -35.06770000     -72.50180000
H      -45.13940000     -34.10480000     -72.78090000
H      -45.60470000     -35.68720000     -73.42750000
C      -45.68380000     -32.10480000     -70.32080000
H      -45.13910000     -32.13780000     -69.39360000
H      -45.02920000     -32.55380000     -71.15360000
C      -47.01390000     -32.84230000     -70.14540000
C      -47.95390000     -32.39950000     -69.28940000
C      -47.41790000     -34.00000000     -70.95780000
H      -47.97580000     -31.50640000     -68.70950000
C      -48.73900000     -34.30730000     -70.61580000
C      -46.87560000     -35.00600000     -71.89320000
C      -47.89280000     -35.81880000     -72.36320000
S      -49.48350000     -33.27190000     -69.43480000
S      -49.42580000     -35.55800000     -71.64920000
H      -47.85890000     -36.76450000     -72.98300000
