40
Properties=species:S:1:pos:R:3 #=T CELL(abcABC):=T 1.889726e+02=T 90.00000=T Traj:=T positionsangstrom=T Step:=T 0=T Bead:=T pbc="F F F"
C      -46.64810000     -35.75570000     -73.75530000
C      -46.91390000     -36.21800000     -72.47520000
C      -45.80320000     -36.65410000     -71.76290000
C      -44.47610000     -36.56910000     -72.20790000
C      -44.34190000     -36.21030000     -73.55270000
C      -45.40200000     -35.68960000     -74.32260000
H      -47.53400000     -35.40150000     -74.35010000
H      -46.00010000     -37.06090000     -70.79630000
H      -43.34660000     -36.09630000     -74.00160000
H      -45.23390000     -35.41870000     -75.35880000
C      -43.31500000     -36.88860000     -71.30360000
H      -42.59970000     -37.67580000     -71.68020000
H      -43.71120000     -37.32890000     -70.40550000
C      -48.26030000     -36.25090000     -71.77160000
H      -49.00130000     -36.60820000     -72.49370000
H      -48.14970000     -36.85160000     -70.92470000
S      -42.18520000     -35.50640000     -70.97230000
S      -48.75520000     -34.57950000     -71.34060000
C      -42.91770000     -33.89330000     -71.48520000
H      -42.25600000     -33.38840000     -72.16430000
H      -43.95250000     -33.91680000     -71.90990000
C      -47.62420000     -34.10880000     -69.93690000
H      -47.47210000     -34.90700000     -69.25810000
H      -48.15910000     -33.43790000     -69.38430000
C      -46.20630000     -33.61390000     -70.32600000
H      -45.58320000     -33.80130000     -69.49420000
H      -45.89130000     -34.11320000     -71.20530000
C      -43.04590000     -33.02670000     -70.21960000
H      -42.05910000     -32.99230000     -69.75370000
H      -43.67510000     -33.50670000     -69.52470000
C      -43.53310000     -31.64180000     -70.45530000
C      -42.76070000     -30.53830000     -70.46200000
C      -44.95290000     -31.38030000     -70.71980000
H      -41.73740000     -30.40260000     -70.19920000
C      -45.17170000     -29.99880000     -70.82370000
C      -46.18250000     -32.08750000     -70.52480000
C      -47.28870000     -31.22930000     -70.43210000
S      -43.72460000     -29.10820000     -70.88350000
S      -46.84680000     -29.51380000     -70.81940000
H      -48.31660000     -31.55810000     -70.41270000
