40
Properties=species:S:1:pos:R:3 #=T CELL(abcABC):=T 1.889726e+02=T 90.00000=T Traj:=T positionsangstrom=T Step:=T 0=T Bead:=T pbc="F F F"
C      -45.99870000     -33.23230000     -74.59830000
C      -45.00750000     -32.36750000     -74.37000000
C      -45.26840000     -31.20110000     -73.62820000
C      -46.57640000     -30.96940000     -73.19080000
C      -47.62340000     -31.88850000     -73.41470000
C      -47.31870000     -33.03700000     -74.21440000
H      -45.84420000     -34.02830000     -75.27990000
H      -44.42770000     -30.56490000     -73.43920000
H      -48.55110000     -31.62040000     -73.00190000
H      -48.11390000     -33.77080000     -74.46190000
C      -46.91380000     -29.71490000     -72.33380000
H      -48.03630000     -29.58570000     -72.32650000
H      -46.46490000     -28.81770000     -72.77990000
C      -43.61050000     -32.67060000     -74.79690000
H      -43.62360000     -33.62130000     -75.33920000
H      -43.22760000     -31.81190000     -75.35410000
S      -46.23060000     -29.73930000     -70.65010000
S      -42.39000000     -32.78600000     -73.37900000
C      -46.87210000     -31.34700000     -70.06630000
H      -47.11080000     -31.33190000     -68.96930000
H      -47.75190000     -31.64930000     -70.59890000
C      -43.08960000     -34.24160000     -72.48330000
H      -42.55900000     -35.14570000     -72.67550000
H      -44.12080000     -34.21750000     -72.69100000
C      -42.90170000     -33.98360000     -70.95230000
H      -41.80370000     -34.20580000     -70.72880000
H      -43.10770000     -32.91670000     -70.60580000
C      -45.77500000     -32.34720000     -70.34370000
H      -44.77140000     -32.03440000     -69.96890000
H      -45.59720000     -32.45030000     -71.36880000
C      -46.03350000     -33.74680000     -69.78160000
C      -47.21900000     -34.02530000     -69.10320000
C      -45.09480000     -34.81530000     -69.73900000
H      -48.14250000     -33.51670000     -69.22250000
C      -45.64780000     -35.97430000     -69.07700000
C      -43.70770000     -34.92270000     -70.06440000
C      -43.24720000     -36.14200000     -69.67500000
S      -47.27470000     -35.76920000     -68.56660000
S      -44.44330000     -37.23090000     -68.95590000
H      -42.26250000     -36.55420000     -69.80070000
