40
Properties=species:S:1:pos:R:3 #=T CELL(abcABC):=T 1.889726e+02=T 90.00000=T Traj:=T positionsangstrom=T Step:=T 0=T Bead:=T pbc="F F F"
C      -41.41230000     -33.99870000     -71.36530000
C      -42.22480000     -33.69900000     -72.52600000
C      -42.68650000     -32.42200000     -72.68290000
C      -42.38250000     -31.42120000     -71.73740000
C      -41.62420000     -31.72590000     -70.63430000
C      -41.16580000     -33.03550000     -70.42240000
H      -40.95820000     -34.98230000     -71.27270000
H      -43.41200000     -31.97270000     -73.50510000
H      -41.33090000     -30.97070000     -69.93630000
H      -40.66600000     -33.22670000     -69.47190000
C      -43.08870000     -30.04680000     -71.89770000
H      -43.79400000     -29.99470000     -72.72380000
H      -42.38970000     -29.22620000     -71.98920000
C      -42.41840000     -34.76910000     -73.58630000
H      -42.97790000     -34.51540000     -74.42950000
H      -41.42480000     -35.11170000     -73.81360000
S      -44.30300000     -29.68610000     -70.53470000
S      -43.27070000     -36.20350000     -72.79270000
C      -45.57190000     -30.95640000     -71.00640000
H      -46.54700000     -30.51510000     -70.73650000
H      -45.46430000     -31.18310000     -72.15290000
C      -44.64640000     -35.51160000     -71.87600000
H      -44.28980000     -34.99490000     -70.98800000
H      -45.26290000     -36.36550000     -71.54430000
C      -45.57310000     -34.59610000     -72.76280000
H      -45.22810000     -33.52540000     -72.79770000
H      -45.61950000     -34.86360000     -73.77660000
C      -45.47660000     -32.24410000     -70.16120000
H      -45.17460000     -32.00540000     -69.05970000
H      -44.74580000     -33.02500000     -70.52690000
C      -46.88980000     -32.90460000     -70.00670000
C      -47.71990000     -32.61720000     -68.99110000
C      -47.41320000     -33.84190000     -70.96790000
H      -47.45100000     -31.94120000     -68.13270000
C      -48.70640000     -34.20490000     -70.58520000
C      -46.96710000     -34.61230000     -72.10730000
C      -47.97160000     -35.44600000     -72.60210000
S      -49.25560000     -33.38720000     -69.10610000
S      -49.39760000     -35.50930000     -71.59280000
H      -47.88050000     -35.95100000     -73.49570000
