40
Properties=species:S:1:pos:R:3 #=T CELL(abcABC):=T 1.889726e+02=T 90.00000=T Traj:=T positionsangstrom=T Step:=T 0=T Bead:=T pbc="F F F"
C      -48.33120000     -35.24520000     -70.85580000
C      -48.53900000     -34.29220000     -71.90230000
C      -47.85640000     -34.41940000     -73.06200000
C      -46.87440000     -35.39930000     -73.22910000
C      -46.75270000     -36.42180000     -72.32550000
C      -47.48080000     -36.35720000     -71.11010000
H      -48.93550000     -35.23450000     -69.98080000
H      -48.05250000     -33.69580000     -73.83250000
H      -46.07750000     -37.25510000     -72.56380000
H      -47.36870000     -37.17500000     -70.37920000
C      -45.96950000     -35.33790000     -74.45310000
H      -45.89860000     -34.28820000     -74.72220000
H      -46.49340000     -35.84670000     -75.17850000
C      -49.54820000     -33.17230000     -71.83990000
H      -49.72420000     -32.78330000     -72.85470000
H      -50.48060000     -33.56350000     -71.45740000
S      -44.26570000     -35.94040000     -74.28330000
S      -48.92940000     -31.71630000     -70.91850000
C      -43.73640000     -35.22270000     -72.62200000
H      -44.39810000     -35.64070000     -71.87940000
H      -42.76550000     -35.71650000     -72.52630000
C      -47.12350000     -31.90850000     -71.16320000
H      -46.72930000     -30.96270000     -70.92430000
H      -46.85680000     -32.10780000     -72.20800000
C      -46.27150000     -32.87370000     -70.26580000
H      -46.87000000     -33.15880000     -69.47580000
H      -46.08720000     -33.79160000     -70.77690000
C      -43.77200000     -33.72560000     -72.63470000
H      -44.78500000     -33.39180000     -72.73680000
H      -43.15440000     -33.44390000     -73.55700000
C      -43.06350000     -32.94510000     -71.55000000
C      -41.70250000     -32.69340000     -71.59210000
C      -43.70610000     -32.27930000     -70.39660000
H      -41.03590000     -32.94740000     -72.41790000
C      -42.74400000     -31.70900000     -69.56040000
C      -44.99840000     -32.25920000     -69.74720000
C      -45.04660000     -31.66840000     -68.47540000
S      -41.12490000     -31.74910000     -70.23140000
S      -43.41120000     -31.10830000     -68.11280000
H      -45.89470000     -31.57910000     -67.84140000
