40
Properties=species:S:1:pos:R:3 #=T CELL(abcABC):=T 1.889726e+02=T 90.00000=T Traj:=T positionsangstrom=T Step:=T 0=T Bead:=T pbc="F F F"
C      -48.75010000     -35.46340000     -71.00890000
C      -48.73560000     -34.45550000     -72.00180000
C      -47.75540000     -34.59310000     -73.08170000
C      -46.89500000     -35.71250000     -73.14880000
C      -47.03950000     -36.70050000     -72.17910000
C      -47.82770000     -36.50140000     -71.04120000
H      -49.40130000     -35.39780000     -70.17310000
H      -47.62020000     -33.75130000     -73.83510000
H      -46.53610000     -37.67600000     -72.25810000
H      -47.72230000     -37.18520000     -70.18850000
C      -45.93660000     -35.96070000     -74.32960000
H      -46.12650000     -35.12460000     -75.03290000
H      -46.13570000     -36.91810000     -74.75960000
C      -49.64480000     -33.23350000     -71.91660000
H      -49.70490000     -32.82290000     -72.97100000
H      -50.56940000     -33.51960000     -71.50900000
S      -44.13180000     -36.09480000     -73.82470000
S      -49.03670000     -31.95020000     -70.73760000
C      -43.61810000     -35.05540000     -72.48810000
H      -44.11850000     -35.39160000     -71.52670000
H      -42.59890000     -35.28980000     -72.31960000
C      -47.20380000     -31.69290000     -71.21500000
H      -47.00900000     -30.62530000     -71.20940000
H      -47.10300000     -31.99320000     -72.28770000
C      -46.19860000     -32.59120000     -70.37550000
H      -46.76410000     -33.16110000     -69.60600000
H      -45.89380000     -33.40620000     -70.99660000
C      -43.81440000     -33.47150000     -72.73310000
H      -44.91690000     -33.37120000     -72.72190000
H      -43.46300000     -33.25360000     -73.72400000
C      -43.08160000     -32.73990000     -71.67860000
C      -41.79450000     -32.40970000     -71.81120000
C      -43.65350000     -32.04610000     -70.47910000
H      -41.22720000     -32.75210000     -72.68060000
C      -42.61330000     -31.49030000     -69.73700000
C      -44.95570000     -31.99030000     -69.80900000
C      -44.89400000     -31.47960000     -68.57090000
S      -41.02800000     -31.61830000     -70.45010000
S      -43.16870000     -30.96460000     -68.21720000
H      -45.67230000     -31.40010000     -67.80570000
