40
Properties=species:S:1:pos:R:3 #=T CELL(abcABC):=T 1.889726e+02=T 90.00000=T Traj:=T positionsangstrom=T Step:=T 0=T Bead:=T pbc="F F F"
C      -49.25160000     -35.34250000     -71.73340000
C      -48.49990000     -34.34310000     -72.27490000
C      -47.31850000     -34.56160000     -72.97890000
C      -46.84060000     -35.86280000     -73.02390000
C      -47.43060000     -36.87420000     -72.21470000
C      -48.64460000     -36.59410000     -71.54840000
H      -50.23590000     -35.29210000     -71.35190000
H      -46.91960000     -33.67510000     -73.52130000
H      -46.96500000     -37.89240000     -72.18410000
H      -49.08050000     -37.34770000     -70.90410000
C      -45.61730000     -36.28800000     -73.83700000
H      -45.38990000     -35.70200000     -74.71410000
H      -45.73900000     -37.26430000     -74.31540000
C      -49.08330000     -32.88840000     -72.16890000
H      -48.61820000     -32.10940000     -72.84550000
H      -50.11940000     -32.88100000     -72.43390000
S      -43.94060000     -36.57710000     -73.07960000
S      -49.04940000     -32.38330000     -70.40010000
C      -43.76280000     -35.20680000     -71.83080000
H      -44.43130000     -35.38140000     -70.99900000
H      -42.79390000     -35.27740000     -71.45090000
C      -47.37100000     -31.72520000     -69.95140000
H      -47.36910000     -31.49070000     -68.87140000
H      -47.16770000     -30.78080000     -70.45530000
C      -46.18210000     -32.65400000     -70.13200000
H      -46.31890000     -33.36620000     -69.33470000
H      -46.22200000     -33.27000000     -71.02730000
C      -43.96500000     -33.80970000     -72.49170000
H      -45.03490000     -33.57760000     -72.45710000
H      -43.79190000     -33.83710000     -73.50930000
C      -43.18830000     -32.68890000     -71.85880000
C      -41.99730000     -32.24040000     -72.37630000
C      -43.59200000     -31.99970000     -70.64070000
H      -41.43680000     -32.45360000     -73.32580000
C      -42.58350000     -31.25340000     -70.11290000
C      -44.83780000     -31.97380000     -69.85100000
C      -44.55020000     -31.31190000     -68.65220000
S      -41.27710000     -31.07400000     -71.27330000
S      -42.97470000     -30.59080000     -68.57600000
H      -45.24600000     -31.15880000     -67.87370000
