40
Properties=species:S:1:pos:R:3 #=T CELL(abcABC):=T 1.889726e+02=T 90.00000=T Traj:=T positionsangstrom=T Step:=T 0=T Bead:=T pbc="F F F"
C      -48.95190000     -35.10030000     -72.13200000
C      -48.45450000     -33.96770000     -72.82170000
C      -47.36680000     -34.17870000     -73.62660000
C      -46.71860000     -35.46020000     -73.81690000
C      -47.28020000     -36.55650000     -73.18220000
C      -48.40460000     -36.39050000     -72.33810000
H      -49.82280000     -34.96510000     -71.38360000
H      -46.87790000     -33.29940000     -74.12460000
H      -46.92880000     -37.56390000     -73.56880000
H      -48.83800000     -37.27840000     -71.89840000
C      -45.57990000     -35.51970000     -74.75840000
H      -45.52190000     -34.55220000     -75.34310000
H      -45.65630000     -36.33680000     -75.47350000
C      -49.05930000     -32.54940000     -72.72530000
H      -48.51260000     -31.86060000     -73.44930000
H      -50.12690000     -32.56250000     -72.88600000
S      -43.88840000     -35.79030000     -74.01570000
S      -48.83420000     -31.77370000     -71.05310000
C      -43.90640000     -34.99880000     -72.35110000
H      -44.79800000     -35.42490000     -71.78660000
H      -42.96330000     -35.26820000     -71.84020000
C      -46.96100000     -31.80450000     -70.83710000
H      -46.77690000     -30.85210000     -70.33240000
H      -46.57910000     -31.82220000     -71.88180000
C      -46.39450000     -33.02800000     -69.94490000
H      -47.12410000     -33.16560000     -69.21610000
H      -46.33580000     -34.00800000     -70.49570000
C      -43.93930000     -33.36420000     -72.35190000
H      -44.99730000     -33.02250000     -72.27120000
H      -43.53750000     -33.18920000     -73.36230000
C      -43.09930000     -32.77290000     -71.25820000
C      -41.79350000     -32.37210000     -71.37310000
C      -43.74930000     -32.44650000     -69.95200000
H      -41.10670000     -32.53570000     -72.21690000
C      -42.79310000     -31.96130000     -69.08620000
C      -45.06470000     -32.56180000     -69.28470000
C      -45.06170000     -32.19290000     -68.01170000
S      -41.22010000     -31.68220000     -69.76880000
S      -43.36820000     -31.60900000     -67.45150000
H      -45.81870000     -32.41260000     -67.22090000
