40
Properties=species:S:1:pos:R:3 #=T CELL(abcABC):=T 1.889726e+02=T 90.00000=T Traj:=T positionsangstrom=T Step:=T 0=T Bead:=T pbc="F F F"
C      -48.97860000     -34.70280000     -72.52990000
C      -48.32570000     -33.63040000     -73.05730000
C      -47.08880000     -33.83650000     -73.79080000
C      -46.60590000     -35.11640000     -74.08830000
C      -47.42510000     -36.21020000     -73.69530000
C      -48.52980000     -36.02380000     -72.86600000
H      -49.80920000     -34.56660000     -71.92120000
H      -46.65630000     -32.99540000     -74.21530000
H      -47.12220000     -37.13620000     -73.99300000
H      -49.02060000     -36.89020000     -72.46300000
C      -45.22350000     -35.37340000     -74.60070000
H      -44.78500000     -34.36730000     -74.79240000
H      -45.14390000     -35.91820000     -75.54780000
C      -48.84450000     -32.26380000     -72.74730000
H      -48.26800000     -31.51730000     -73.27350000
H      -49.91950000     -32.20440000     -73.07280000
S      -44.15810000     -36.28640000     -73.35570000
S      -48.87720000     -31.98990000     -70.92660000
C      -44.15060000     -35.08790000     -71.92400000
H      -44.95860000     -35.26060000     -71.21670000
H      -43.18760000     -35.25610000     -71.35830000
C      -47.10310000     -31.82780000     -70.32330000
H      -47.18180000     -31.13430000     -69.44820000
H      -46.44110000     -31.27620000     -71.00720000
C      -46.38600000     -33.10920000     -69.91740000
H      -47.05360000     -33.68710000     -69.23390000
H      -46.17220000     -33.73300000     -70.76820000
C      -43.90680000     -33.63750000     -72.34080000
H      -44.86890000     -33.15820000     -72.56240000
H      -43.31730000     -33.52150000     -73.22620000
C      -43.12370000     -32.84860000     -71.34560000
C      -41.85560000     -32.39540000     -71.43740000
C      -43.72200000     -32.54070000     -70.00960000
H      -41.15360000     -32.54470000     -72.29210000
C      -42.75870000     -31.86870000     -69.20170000
C      -44.98270000     -32.76980000     -69.27400000
C      -44.87880000     -32.37270000     -67.97520000
S      -41.25930000     -31.53420000     -70.03910000
S      -43.32390000     -31.72960000     -67.52580000
H      -45.68660000     -32.35420000     -67.25290000
