40
Properties=species:S:1:pos:R:3 #=T CELL(abcABC):=T 1.889726e+02=T 90.00000=T Traj:=T positionsangstrom=T Step:=T 0=T Bead:=T pbc="F F F"
C      -48.55150000     -35.44220000     -71.19540000
C      -48.55670000     -34.39880000     -72.13530000
C      -47.65900000     -34.38130000     -73.22140000
C      -46.74880000     -35.42500000     -73.34800000
C      -46.64140000     -36.37940000     -72.34560000
C      -47.41780000     -36.30910000     -71.17080000
H      -49.33170000     -35.46260000     -70.46560000
H      -47.65650000     -33.56630000     -73.97210000
H      -45.85590000     -37.16670000     -72.29140000
H      -47.24860000     -37.06020000     -70.40480000
C      -45.88910000     -35.48820000     -74.53580000
H      -45.80520000     -34.51120000     -75.06670000
H      -46.26670000     -36.20300000     -75.29440000
C      -49.55990000     -33.27440000     -71.85030000
H      -49.97390000     -32.90450000     -72.87280000
H      -50.36030000     -33.70160000     -71.27930000
S      -44.04560000     -36.05960000     -74.16330000
S      -48.93650000     -31.76850000     -70.93790000
C      -43.60170000     -34.91860000     -72.70580000
H      -44.16850000     -35.31280000     -71.79780000
H      -42.60530000     -35.15440000     -72.58610000
C      -47.02320000     -31.52670000     -71.03820000
H      -46.93530000     -30.53840000     -70.60720000
H      -46.75050000     -31.45870000     -72.13080000
C      -46.42440000     -32.69900000     -70.24710000
H      -47.16270000     -32.97180000     -69.40050000
H      -46.22550000     -33.62390000     -70.85860000
C      -43.90310000     -33.44810000     -72.71180000
H      -45.02260000     -33.25870000     -72.82490000
H      -43.54740000     -32.99250000     -73.62260000
C      -43.17220000     -32.85730000     -71.56680000
C      -41.81010000     -32.63500000     -71.55240000
C      -43.78230000     -32.35100000     -70.35040000
H      -41.09080000     -33.06730000     -72.26500000
C      -42.85760000     -31.80390000     -69.48780000
C      -45.09930000     -32.21060000     -69.75050000
C      -45.02400000     -31.69000000     -68.44250000
S      -41.19300000     -31.85960000     -70.10960000
S      -43.47080000     -31.14810000     -68.00380000
H      -45.86310000     -31.63260000     -67.73590000
