40
Properties=species:S:1:pos:R:3 #=T CELL(abcABC):=T 1.889726e+02=T 90.00000=T Traj:=T positionsangstrom=T Step:=T 0=T Bead:=T pbc="F F F"
C      -48.81780000     -35.12350000     -71.99310000
C      -48.42500000     -34.04920000     -72.81800000
C      -47.33520000     -34.25960000     -73.66350000
C      -46.72510000     -35.51360000     -73.82840000
C      -47.17300000     -36.60460000     -73.03840000
C      -48.15020000     -36.33630000     -72.03540000
H      -49.73710000     -34.94420000     -71.43290000
H      -46.99440000     -33.45080000     -74.28410000
H      -46.57100000     -37.48690000     -72.88730000
H      -48.43970000     -37.16800000     -71.38740000
C      -45.66950000     -35.66860000     -74.81980000
H      -45.67250000     -35.08290000     -75.71260000
H      -45.85410000     -36.66490000     -75.18880000
C      -49.10540000     -32.69600000     -72.59490000
H      -48.84320000     -32.01350000     -73.42490000
H      -50.17340000     -32.89810000     -72.68790000
S      -43.94910000     -35.69690000     -74.05550000
S      -48.70810000     -31.91550000     -70.97360000
C      -44.06110000     -34.78890000     -72.44680000
H      -45.04030000     -35.10450000     -72.08230000
H      -43.43300000     -35.35870000     -71.74160000
C      -46.88150000     -31.65700000     -70.84070000
H      -46.63380000     -30.79040000     -70.19400000
H      -46.37020000     -31.49730000     -71.81110000
C      -46.34180000     -32.93140000     -70.02360000
H      -47.08430000     -33.25550000     -69.28130000
H      -46.07760000     -33.73590000     -70.70630000
C      -43.88540000     -33.32060000     -72.53640000
H      -44.77950000     -32.82860000     -72.73500000
H      -43.25410000     -32.98180000     -73.36740000
C      -43.18330000     -32.76500000     -71.30670000
C      -41.85530000     -32.42880000     -71.30680000
C      -43.77660000     -32.45660000     -69.98420000
H      -41.24780000     -32.52670000     -72.18600000
C      -42.81720000     -31.99820000     -69.06600000
C      -45.08890000     -32.51130000     -69.32270000
C      -45.02970000     -32.02270000     -68.06850000
S      -41.27730000     -31.79580000     -69.82320000
S      -43.47940000     -31.49730000     -67.50280000
H      -45.90230000     -31.84940000     -67.42850000
