40
Properties=species:S:1:pos:R:3 #=T CELL(abcABC):=T 1.889726e+02=T 90.00000=T Traj:=T positionsangstrom=T Step:=T 0=T Bead:=T pbc="F F F"
C      -49.20910000     -34.81870000     -72.55980000
C      -48.36490000     -33.70500000     -72.95530000
C      -47.21420000     -33.94290000     -73.67420000
C      -46.83720000     -35.26910000     -74.05690000
C      -47.65850000     -36.28810000     -73.69920000
C      -48.84580000     -36.07620000     -72.97290000
H      -50.18810000     -34.57530000     -72.11370000
H      -46.61420000     -33.12760000     -74.06030000
H      -47.32570000     -37.34100000     -74.03430000
H      -49.46920000     -36.95210000     -72.64880000
C      -45.54790000     -35.62040000     -74.74030000
H      -45.16160000     -34.76240000     -75.33310000
H      -45.61660000     -36.50690000     -75.40180000
C      -48.70330000     -32.32320000     -72.57720000
H      -47.92520000     -31.62850000     -73.00060000
H      -49.72450000     -31.94350000     -72.93090000
S      -44.09530000     -36.16650000     -73.64690000
S      -48.87760000     -32.13380000     -70.75540000
C      -44.16050000     -35.09030000     -72.16910000
H      -45.20730000     -35.06630000     -71.85250000
H      -43.55670000     -35.62900000     -71.41490000
C      -47.12270000     -31.58060000     -70.25910000
H      -47.20240000     -31.13750000     -69.26290000
H      -46.77740000     -30.81780000     -70.97940000
C      -46.16380000     -32.73160000     -70.18090000
H      -46.66270000     -33.54030000     -69.61450000
H      -46.09590000     -33.11540000     -71.19400000
C      -43.70990000     -33.58590000     -72.38010000
H      -44.58900000     -33.04190000     -72.76280000
H      -42.93230000     -33.57180000     -73.17300000
C      -43.04090000     -32.86830000     -71.26470000
C      -41.66270000     -32.72390000     -71.24220000
C      -43.54340000     -32.46230000     -69.97730000
H      -40.96990000     -32.86350000     -72.14710000
C      -42.62690000     -31.93560000     -69.08160000
C      -44.94080000     -32.35620000     -69.42830000
C      -44.98640000     -31.89990000     -68.14020000
S      -41.05690000     -31.96240000     -69.74040000
S      -43.38360000     -31.40400000     -67.55870000
H      -45.90400000     -31.89220000     -67.56160000
