40
Properties=species:S:1:pos:R:3 #=T CELL(abcABC):=T 1.889726e+02=T 90.00000=T Traj:=T positionsangstrom=T Step:=T 0=T Bead:=T pbc="F F F"
C      -49.22870000     -34.68900000     -72.84050000
C      -48.25910000     -33.73710000     -72.89930000
C      -47.01970000     -34.06130000     -73.55120000
C      -46.71790000     -35.32530000     -73.94780000
C      -47.65900000     -36.37750000     -73.59410000
C      -48.89220000     -36.05630000     -73.08350000
H      -50.20110000     -34.37730000     -72.34180000
H      -46.24830000     -33.33320000     -73.61080000
H      -47.33370000     -37.45440000     -73.80630000
H      -49.68160000     -36.89660000     -72.98400000
C      -45.43350000     -35.55730000     -74.73330000
H      -45.18290000     -34.62310000     -75.23470000
H      -45.55050000     -36.30410000     -75.51960000
C      -48.63390000     -32.28900000     -72.58740000
H      -47.86010000     -31.64650000     -72.99820000
H      -49.49380000     -32.05430000     -73.14020000
S      -44.06340000     -36.14780000     -73.57010000
S      -48.94640000     -31.93640000     -70.82910000
C      -44.05630000     -35.02040000     -72.03100000
H      -44.96980000     -35.12530000     -71.48710000
H      -43.31750000     -35.48840000     -71.28880000
C      -47.24730000     -31.70580000     -70.13280000
H      -47.44150000     -31.29880000     -69.15810000
H      -46.73000000     -30.93620000     -70.75890000
C      -46.35590000     -32.92480000     -69.98090000
H      -46.73920000     -33.71280000     -69.34610000
H      -46.29610000     -33.46970000     -70.97030000
C      -43.72850000     -33.60320000     -72.46760000
H      -44.59230000     -33.03660000     -72.82260000
H      -43.06840000     -33.59070000     -73.34990000
C      -43.05720000     -32.87270000     -71.26930000
C      -41.68890000     -32.56220000     -71.27850000
C      -43.61340000     -32.46920000     -70.04550000
H      -40.92970000     -32.78080000     -72.00040000
C      -42.67720000     -31.96880000     -69.15570000
C      -44.94110000     -32.53380000     -69.41600000
C      -44.92080000     -32.05540000     -68.11180000
S      -41.12870000     -31.80410000     -69.82520000
S      -43.37180000     -31.56320000     -67.60340000
H      -45.68530000     -31.90570000     -67.42620000
