40
Properties=species:S:1:pos:R:3 #=T CELL(abcABC):=T 1.889726e+02=T 90.00000=T Traj:=T positionsangstrom=T Step:=T 0=T Bead:=T pbc="F F F"
C      -49.18430000     -34.93020000     -72.01410000
C      -48.61670000     -33.71880000     -72.53580000
C      -47.45820000     -33.78640000     -73.30430000
C      -46.87200000     -35.04670000     -73.70760000
C      -47.46090000     -36.22670000     -73.30510000
C      -48.54750000     -36.14570000     -72.36440000
H      -49.86710000     -34.93800000     -71.14190000
H      -46.99250000     -32.89700000     -73.74700000
H      -46.95550000     -37.24720000     -73.46840000
H      -48.78190000     -37.04970000     -71.85130000
C      -45.73890000     -35.06050000     -74.63850000
H      -45.41580000     -34.07540000     -74.87590000
H      -46.05670000     -35.54150000     -75.56720000
C      -49.16770000     -32.30060000     -72.31090000
H      -48.75460000     -31.48560000     -72.90970000
H      -50.28990000     -32.33650000     -72.50100000
S      -44.29760000     -36.02240000     -74.03280000
S      -48.91620000     -31.88290000     -70.57870000
C      -44.01740000     -35.30150000     -72.33000000
H      -44.90920000     -35.50690000     -71.71060000
H      -43.15920000     -35.83930000     -72.15010000
C      -47.13170000     -31.50310000     -70.51970000
H      -47.04570000     -30.82280000     -69.65900000
H      -47.05950000     -30.89140000     -71.35390000
C      -46.16090000     -32.64140000     -70.29180000
H      -46.65530000     -33.38700000     -69.62920000
H      -45.84970000     -33.22510000     -71.08940000
C      -43.71850000     -33.81910000     -72.42350000
H      -44.70510000     -33.34280000     -72.43210000
H      -43.19710000     -33.66980000     -73.32240000
C      -42.95580000     -33.25950000     -71.25190000
C      -41.61810000     -33.36500000     -71.19630000
C      -43.56140000     -32.52460000     -70.12140000
H      -40.95880000     -34.03090000     -71.81740000
C      -42.59130000     -32.04090000     -69.31920000
C      -44.86150000     -32.22080000     -69.69000000
C      -44.87200000     -31.49800000     -68.46780000
S      -40.89160000     -32.42380000     -69.87390000
S      -43.22010000     -31.30000000     -67.87400000
H      -45.73030000     -31.09550000     -67.99790000
