40
Properties=species:S:1:pos:R:3 #=T CELL(abcABC):=T 1.889726e+02=T 90.00000=T Traj:=T positionsangstrom=T Step:=T 0=T Bead:=T pbc="F F F"
C      -46.14290000     -31.23720000     -75.29210000
C      -45.13940000     -31.14010000     -74.29940000
C      -45.49350000     -30.73920000     -73.00640000
C      -46.83140000     -30.53650000     -72.63980000
C      -47.84000000     -30.66880000     -73.63180000
C      -47.48600000     -31.01010000     -74.91400000
H      -45.88540000     -31.51200000     -76.33160000
H      -44.68740000     -30.80430000     -72.21940000
H      -48.93630000     -30.65830000     -73.39470000
H      -48.25450000     -31.26170000     -75.70000000
C      -47.17510000     -30.16120000     -71.23870000
H      -47.83820000     -29.30950000     -71.16710000
H      -46.31060000     -30.14900000     -70.55730000
C      -43.70840000     -31.21110000     -74.70210000
H      -43.43280000     -31.82230000     -75.62390000
H      -43.38750000     -30.20190000     -74.92730000
S      -48.26280000     -31.47220000     -70.50450000
S      -42.53290000     -31.90280000     -73.30230000
C      -47.23380000     -33.02860000     -70.25650000
H      -48.03170000     -33.85280000     -70.21440000
H      -46.79110000     -33.18110000     -71.25480000
C      -43.42030000     -33.40660000     -72.67650000
H      -42.83100000     -34.25120000     -72.98050000
H      -44.34040000     -33.51660000     -73.27180000
C      -43.71510000     -33.37630000     -71.21290000
H      -42.82610000     -33.02850000     -70.60970000
H      -44.61090000     -32.76870000     -71.06970000
C      -46.30820000     -33.09690000     -69.09050000
H      -46.87940000     -32.77840000     -68.23400000
H      -45.55840000     -32.26650000     -69.20250000
C      -45.73440000     -34.42270000     -68.84610000
C      -46.17470000     -35.25220000     -67.86080000
C      -44.76470000     -35.09830000     -69.69160000
H      -46.93590000     -35.04520000     -67.12680000
C      -44.60290000     -36.41770000     -69.31870000
C      -43.90620000     -34.85750000     -70.78940000
C      -43.15030000     -35.90070000     -71.18290000
S      -45.50450000     -36.87670000     -67.95930000
S      -43.55060000     -37.34010000     -70.31310000
H      -42.51930000     -36.05680000     -72.03250000
