40
Properties=species:S:1:pos:R:3 #=T CELL(abcABC):=T 1.889726e+02=T 90.00000=T Traj:=T positionsangstrom=T Step:=T 0=T Bead:=T pbc="F F F"
C      -46.07600000     -31.11210000     -75.29810000
C      -45.12550000     -31.02830000     -74.25890000
C      -45.53780000     -30.95660000     -72.90750000
C      -46.91020000     -30.71720000     -72.63940000
C      -47.83750000     -30.74110000     -73.69170000
C      -47.44310000     -30.81840000     -75.03010000
H      -45.75610000     -31.27850000     -76.35300000
H      -44.80420000     -30.84700000     -72.13400000
H      -48.84690000     -30.59410000     -73.45730000
H      -48.25100000     -30.78580000     -75.87470000
C      -47.37050000     -30.32150000     -71.23390000
H      -47.95160000     -29.42680000     -71.32910000
H      -46.45870000     -30.01900000     -70.68560000
C      -43.64330000     -31.13610000     -74.60800000
H      -43.68520000     -31.88410000     -75.35850000
H      -43.33630000     -30.11620000     -74.90040000
S      -48.35500000     -31.55230000     -70.20940000
S      -42.58040000     -31.66400000     -73.32110000
C      -47.27580000     -33.04400000     -70.31460000
H      -47.85290000     -33.92560000     -70.36770000
H      -46.68250000     -32.98200000     -71.20840000
C      -43.21560000     -33.38750000     -72.98630000
H      -42.38540000     -34.10780000     -73.24340000
H      -44.07700000     -33.56200000     -73.59480000
C      -43.68040000     -33.49400000     -71.53590000
H      -42.85360000     -33.16740000     -70.88300000
H      -44.56400000     -32.82360000     -71.26440000
C      -46.18070000     -33.05530000     -69.12950000
H      -46.66750000     -32.71240000     -68.23340000
H      -45.37070000     -32.40070000     -69.41460000
C      -45.62900000     -34.40760000     -68.85050000
C      -46.19880000     -35.19460000     -67.83960000
C      -44.72800000     -35.18380000     -69.71500000
H      -47.03910000     -35.05880000     -67.21030000
C      -44.59030000     -36.51110000     -69.27360000
C      -43.94610000     -34.92430000     -70.97120000
C      -43.24640000     -36.00720000     -71.40000000
S      -45.49050000     -36.83140000     -67.79430000
S      -43.52710000     -37.38860000     -70.31050000
H      -42.51270000     -36.00870000     -72.21140000
