40
Properties=species:S:1:pos:R:3 #=T CELL(abcABC):=T 1.889726e+02=T 90.00000=T Traj:=T positionsangstrom=T Step:=T 0=T Bead:=T pbc="F F F"
C      -49.29740000     -34.41400000     -71.21320000
C      -48.78360000     -33.31630000     -71.93610000
C      -47.75740000     -33.55150000     -72.90370000
C      -47.47440000     -34.80820000     -73.28560000
C      -48.09260000     -35.91730000     -72.67510000
C      -48.94180000     -35.70510000     -71.61190000
H      -49.72980000     -34.07830000     -70.24130000
H      -47.48660000     -32.73220000     -73.56010000
H      -47.83370000     -36.96130000     -73.00830000
H      -49.34750000     -36.56660000     -71.05330000
C      -46.62640000     -35.02030000     -74.50430000
H      -46.40840000     -34.03850000     -74.99100000
H      -47.23010000     -35.54370000     -75.29030000
C      -49.20370000     -31.92480000     -71.55180000
H      -48.92130000     -31.19420000     -72.32280000
H      -50.31060000     -31.73360000     -71.36940000
S      -45.13640000     -36.11470000     -74.15970000
S      -48.24590000     -31.44480000     -69.98760000
C      -44.39040000     -35.17850000     -72.66470000
H      -45.09170000     -35.22680000     -71.78170000
H      -43.50750000     -35.63620000     -72.40320000
C      -46.50230000     -31.79140000     -70.37680000
H      -45.93230000     -30.88760000     -70.04200000
H      -46.39540000     -31.91960000     -71.45210000
C      -45.89300000     -33.05330000     -69.74280000
H      -46.41000000     -33.19360000     -68.76400000
H      -46.02190000     -33.91620000     -70.29010000
C      -44.21890000     -33.68360000     -72.83550000
H      -45.17170000     -33.14080000     -72.72480000
H      -43.87440000     -33.51740000     -73.85420000
C      -43.21440000     -33.03600000     -71.89770000
C      -41.95330000     -32.68460000     -72.28060000
C      -43.43410000     -32.73190000     -70.46880000
H      -41.68790000     -32.80990000     -73.32580000
C      -42.17490000     -32.48210000     -69.86130000
C      -44.45890000     -32.87370000     -69.45000000
C      -44.00760000     -32.50850000     -68.19380000
S      -40.85160000     -32.14210000     -71.03420000
S      -42.26990000     -32.24900000     -68.16050000
H      -44.64060000     -32.49910000     -67.35830000
