40
Properties=species:S:1:pos:R:3 #=T CELL(abcABC):=T 1.889726e+02=T 90.00000=T Traj:=T positionsangstrom=T Step:=T 0=T Bead:=T pbc="F F F"
C      -49.14570000     -34.64160000     -71.16850000
C      -48.80510000     -33.52610000     -71.93770000
C      -47.88070000     -33.70550000     -73.00860000
C      -47.46530000     -34.98460000     -73.38200000
C      -47.82610000     -36.11370000     -72.64560000
C      -48.59760000     -35.85990000     -71.48610000
H      -49.71040000     -34.56440000     -70.24240000
H      -47.85350000     -32.85320000     -73.67260000
H      -47.54460000     -37.11130000     -72.93940000
H      -48.92920000     -36.75360000     -70.89220000
C      -46.57550000     -35.33290000     -74.59560000
H      -46.49540000     -34.53310000     -75.28480000
H      -47.12260000     -36.10620000     -75.20110000
C      -49.32430000     -32.22350000     -71.48630000
H      -49.16120000     -31.36540000     -72.27530000
H      -50.35770000     -32.24010000     -71.37190000
S      -44.88380000     -35.93660000     -74.26870000
S      -48.61960000     -31.65500000     -69.86580000
C      -44.07980000     -35.10610000     -72.84850000
H      -44.46840000     -35.33030000     -71.89590000
H      -43.02690000     -35.55470000     -72.82290000
C      -46.83940000     -31.47950000     -70.20970000
H      -46.59320000     -30.71590000     -69.43110000
H      -46.63270000     -31.06690000     -71.18490000
C      -46.03990000     -32.77050000     -69.99260000
H      -46.46600000     -33.26660000     -69.15940000
H      -46.14740000     -33.36800000     -70.90270000
C      -43.91230000     -33.56700000     -73.01520000
H      -44.84470000     -33.01270000     -73.14130000
H      -43.35180000     -33.41050000     -73.95800000
C      -43.02720000     -32.99260000     -71.90070000
C      -41.69000000     -32.86130000     -72.15060000
C      -43.38200000     -32.71650000     -70.51610000
H      -41.08060000     -32.94960000     -73.03550000
C      -42.22670000     -32.32570000     -69.80040000
C      -44.56490000     -32.58540000     -69.68630000
C      -44.27100000     -32.21120000     -68.38640000
S      -40.77770000     -32.29340000     -70.74990000
S      -42.54870000     -31.92600000     -68.13370000
H      -45.03360000     -31.99270000     -67.63570000
