40
Properties=species:S:1:pos:R:3 #=T CELL(abcABC):=T 1.889726e+02=T 90.00000=T Traj:=T positionsangstrom=T Step:=T 0=T Bead:=T pbc="F F F"
C      -49.16250000     -34.59040000     -71.16600000
C      -48.78320000     -33.46020000     -71.94970000
C      -47.93400000     -33.64720000     -73.01490000
C      -47.39150000     -34.92050000     -73.33470000
C      -47.84980000     -36.05080000     -72.62220000
C      -48.66530000     -35.85940000     -71.50630000
H      -49.78250000     -34.42600000     -70.30340000
H      -47.53480000     -32.77910000     -73.55380000
H      -47.47720000     -36.99330000     -72.79440000
H      -49.02580000     -36.61650000     -70.81460000
C      -46.47580000     -34.94820000     -74.58670000
H      -46.08860000     -33.93910000     -74.81360000
H      -47.03190000     -35.42310000     -75.47860000
C      -49.18950000     -32.05890000     -71.58740000
H      -48.74720000     -31.26720000     -72.21180000
H      -50.25900000     -31.96360000     -71.57310000
S      -45.02190000     -36.04990000     -74.16980000
S      -48.49870000     -31.61000000     -69.88410000
C      -44.38100000     -35.05420000     -72.65270000
H      -45.08740000     -35.06870000     -71.85130000
H      -43.40730000     -35.55360000     -72.36130000
C      -46.68650000     -31.66410000     -70.24500000
H      -46.21890000     -30.97380000     -69.57410000
H      -46.46540000     -31.29600000     -71.25450000
C      -45.94090000     -33.01730000     -70.06810000
H      -46.41920000     -33.63290000     -69.33860000
H      -45.91770000     -33.64450000     -71.03740000
C      -44.14220000     -33.55260000     -72.90790000
H      -45.10700000     -32.99930000     -72.77610000
H      -43.74470000     -33.35520000     -73.90070000
C      -43.12520000     -33.00080000     -71.93020000
C      -41.81240000     -32.82690000     -72.22330000
C      -43.39200000     -32.75200000     -70.48650000
H      -41.32820000     -32.82240000     -73.19310000
C      -42.24160000     -32.22700000     -69.86750000
C      -44.52790000     -32.75410000     -69.60010000
C      -44.19700000     -32.35100000     -68.32140000
S      -40.75840000     -32.28420000     -70.87200000
S      -42.46860000     -32.00460000     -68.16980000
H      -44.87930000     -32.24860000     -67.49050000
