40
Properties=species:S:1:pos:R:3 #=T CELL(abcABC):=T 1.889726e+02=T 90.00000=T Traj:=T positionsangstrom=T Step:=T 0=T Bead:=T pbc="F F F"
C      -46.94910000     -36.22000000     -73.57590000
C      -47.02340000     -36.06000000     -72.18800000
C      -45.80140000     -36.17190000     -71.44710000
C      -44.58890000     -36.36470000     -72.01320000
C      -44.56160000     -36.50500000     -73.40390000
C      -45.73710000     -36.47860000     -74.17390000
H      -47.86930000     -36.02810000     -74.11170000
H      -45.89960000     -36.22220000     -70.38610000
H      -43.59620000     -36.56500000     -73.96870000
H      -45.71740000     -36.63150000     -75.23830000
C      -43.33270000     -36.57370000     -71.20670000
H      -43.03360000     -37.60130000     -71.34430000
H      -43.58420000     -36.28520000     -70.17260000
C      -48.27980000     -35.82450000     -71.29520000
H      -49.16510000     -36.39890000     -71.73410000
H      -48.15560000     -36.42150000     -70.38630000
S      -41.91880000     -35.46910000     -71.74690000
S      -48.78920000     -34.14410000     -70.82150000
C      -42.64730000     -33.81360000     -71.61380000
H      -42.05330000     -33.14120000     -72.25930000
H      -43.61060000     -33.80260000     -72.20870000
C      -47.59430000     -33.95120000     -69.34690000
H      -47.59760000     -34.96190000     -68.87600000
H      -48.05850000     -33.26220000     -68.69750000
C      -46.12850000     -33.47010000     -69.58670000
H      -45.54730000     -33.58880000     -68.69050000
H      -45.57230000     -34.01070000     -70.39180000
C      -42.92540000     -33.10580000     -70.22760000
H      -41.97280000     -32.95610000     -69.71420000
H      -43.44440000     -33.84180000     -69.65760000
C      -43.52720000     -31.76910000     -70.50010000
C      -42.76290000     -30.70190000     -70.93500000
C      -44.94090000     -31.37490000     -70.42000000
H      -41.68320000     -30.78600000     -71.11400000
C      -45.16260000     -30.14870000     -71.00380000
C      -46.15990000     -31.98510000     -70.05480000
C      -47.29590000     -31.25740000     -70.43650000
S      -43.73180000     -29.36320000     -71.50530000
S      -46.84850000     -29.73410000     -71.23390000
H      -48.38040000     -31.62690000     -70.30950000
