40
Properties=species:S:1:pos:R:3 #=T CELL(abcABC):=T 1.889726e+02=T 90.00000=T Traj:=T positionsangstrom=T Step:=T 0=T Bead:=T pbc="F F F"
C      -49.18520000     -34.50510000     -71.20590000
C      -48.88460000     -33.34460000     -72.04940000
C      -47.98230000     -33.54040000     -73.10130000
C      -47.44850000     -34.81020000     -73.40480000
C      -47.86320000     -35.90060000     -72.64060000
C      -48.76070000     -35.80010000     -71.60510000
H      -49.94820000     -34.48640000     -70.40750000
H      -47.71320000     -32.67370000     -73.71230000
H      -47.51970000     -36.85210000     -73.05000000
H      -49.06500000     -36.62280000     -71.01810000
C      -46.49180000     -34.99990000     -74.50440000
H      -46.12010000     -34.01170000     -74.86160000
H      -46.89120000     -35.50240000     -75.32180000
C      -49.26700000     -31.96800000     -71.48840000
H      -49.15760000     -31.20470000     -72.24450000
H      -50.40400000     -32.04240000     -71.18660000
S      -45.02370000     -35.97960000     -74.03490000
S      -48.34860000     -31.49080000     -69.89320000
C      -44.38840000     -35.13310000     -72.56480000
H      -45.05910000     -35.43260000     -71.66520000
H      -43.44590000     -35.64580000     -72.42730000
C      -46.52380000     -31.67800000     -70.27320000
H      -45.97640000     -30.86340000     -69.73380000
H      -46.48130000     -31.41920000     -71.34050000
C      -45.97010000     -33.07840000     -69.87980000
H      -46.58640000     -33.54830000     -69.10910000
H      -46.16770000     -33.77480000     -70.76190000
C      -44.20930000     -33.64780000     -72.83650000
H      -45.21420000     -33.15190000     -72.71050000
H      -43.88900000     -33.52330000     -73.86310000
C      -43.18750000     -33.02880000     -71.88560000
C      -41.90560000     -32.83950000     -72.32630000
C      -43.36970000     -32.82270000     -70.45600000
H      -41.45190000     -33.10660000     -73.29590000
C      -42.18330000     -32.40930000     -69.87130000
C      -44.47730000     -32.93470000     -69.51420000
C      -44.06660000     -32.59670000     -68.23400000
S      -40.81570000     -32.29400000     -71.02440000
S      -42.42310000     -32.02730000     -68.23910000
H      -44.59380000     -32.53350000     -67.28650000
