40
Properties=species:S:1:pos:R:3 #=T CELL(abcABC):=T 1.889726e+02=T 90.00000=T Traj:=T positionsangstrom=T Step:=T 0=T Bead:=T pbc="F F F"
C      -45.34640000     -29.55730000     -73.24610000
C      -45.83210000     -30.78270000     -73.72150000
C      -46.98570000     -31.32440000     -73.12160000
C      -47.52100000     -30.69250000     -72.00230000
C      -46.83140000     -29.63240000     -71.40700000
C      -45.78640000     -29.02570000     -72.06480000
H      -44.54510000     -29.03470000     -73.72850000
H      -47.55390000     -32.12450000     -73.55430000
H      -47.32080000     -29.19310000     -70.51500000
H      -45.20980000     -28.18170000     -71.61720000
C      -48.77230000     -31.37210000     -71.47250000
H      -49.19080000     -32.10330000     -72.19950000
H      -49.60610000     -30.68520000     -71.24140000
C      -45.04170000     -31.49890000     -74.77540000
H      -45.70510000     -31.96550000     -75.46200000
H      -44.16640000     -30.87470000     -75.10040000
S      -48.58810000     -32.21580000     -69.80860000
S      -44.23240000     -33.08440000     -74.03440000
C      -46.95970000     -33.16230000     -69.77470000
H      -46.10990000     -32.45120000     -69.87000000
H      -46.95520000     -33.69130000     -68.79470000
C      -43.19530000     -32.32900000     -72.62780000
H      -43.08930000     -31.27760000     -72.83990000
H      -42.21330000     -32.76890000     -72.67730000
C      -43.62040000     -32.68910000     -71.19700000
H      -42.97120000     -32.07750000     -70.55060000
H      -44.56540000     -32.31470000     -70.85370000
C      -46.82230000     -34.15180000     -70.95330000
H      -46.57790000     -33.57210000     -71.87270000
H      -47.74370000     -34.52550000     -71.21770000
C      -45.83060000     -35.26150000     -70.53010000
C      -46.28470000     -36.54770000     -70.10510000
C      -44.38140000     -35.14070000     -70.39130000
H      -47.26240000     -36.96990000     -70.18570000
C      -43.79560000     -36.27730000     -69.86360000
C      -43.41060000     -34.14780000     -70.68230000
C      -42.15100000     -34.61460000     -70.33840000
S      -44.93880000     -37.56290000     -69.64270000
S      -42.12530000     -36.13190000     -69.58230000
H      -41.27640000     -33.98030000     -70.48480000
