40
Properties=species:S:1:pos:R:3 #=T CELL(abcABC):=T 1.889726e+02=T 90.00000=T Traj:=T positionsangstrom=T Step:=T 0=T Bead:=T pbc="F F F"
C      -49.57290000     -34.28540000     -70.66500000
C      -48.82510000     -33.25660000     -71.27490000
C      -48.18710000     -33.50320000     -72.54530000
C      -48.19870000     -34.84930000     -73.04570000
C      -48.82190000     -35.90010000     -72.32070000
C      -49.48200000     -35.62630000     -71.11360000
H      -49.91460000     -34.10840000     -69.61550000
H      -47.86610000     -32.57450000     -73.05060000
H      -48.90430000     -36.86830000     -72.90530000
H      -49.96300000     -36.38290000     -70.51370000
C      -47.61780000     -34.94920000     -74.44140000
H      -47.78650000     -34.04360000     -75.03760000
H      -48.03910000     -35.70910000     -75.05110000
C      -49.03160000     -31.82210000     -70.66230000
H      -49.10760000     -31.03400000     -71.41470000
H      -50.04350000     -31.78010000     -70.22260000
S      -45.85710000     -35.52940000     -74.40130000
S      -47.80750000     -31.43970000     -69.39330000
C      -45.02840000     -34.90980000     -72.84280000
H      -45.70280000     -35.03110000     -72.00210000
H      -44.34790000     -35.73210000     -72.67490000
C      -45.98710000     -31.58620000     -69.89170000
H      -45.53200000     -30.82080000     -69.24620000
H      -45.75740000     -31.20850000     -70.92790000
C      -45.42920000     -32.93200000     -69.64500000
H      -45.98860000     -33.36690000     -68.72590000
H      -45.69210000     -33.65370000     -70.33790000
C      -44.48480000     -33.50680000     -72.99520000
H      -45.17600000     -32.62660000     -72.89980000
H      -44.28850000     -33.36050000     -74.10800000
C      -43.21090000     -33.21480000     -72.17310000
C      -42.01890000     -33.15850000     -72.79540000
C      -43.04120000     -32.94330000     -70.68960000
H      -41.93420000     -33.30210000     -73.89960000
C      -41.70280000     -32.65220000     -70.36180000
C      -43.91320000     -32.97420000     -69.51950000
C      -43.23680000     -32.52290000     -68.40680000
S      -40.67420000     -32.84440000     -71.75510000
S      -41.53630000     -32.21860000     -68.68380000
H      -43.68900000     -32.44930000     -67.42960000
