40
Properties=species:S:1:pos:R:3 #=T CELL(abcABC):=T 1.889726e+02=T 90.00000=T Traj:=T positionsangstrom=T Step:=T 0=T Bead:=T pbc="F F F"
C      -49.36250000     -34.36860000     -70.60460000
C      -48.97670000     -33.24010000     -71.41040000
C      -48.47220000     -33.49890000     -72.70620000
C      -48.34020000     -34.79300000     -73.24170000
C      -48.86460000     -35.88770000     -72.56430000
C      -49.32520000     -35.59530000     -71.26500000
H      -50.00570000     -34.15640000     -69.78920000
H      -48.09690000     -32.64500000     -73.35600000
H      -48.77390000     -36.93730000     -72.91150000
H      -49.89890000     -36.32080000     -70.77180000
C      -47.56970000     -34.98810000     -74.45660000
H      -47.48690000     -34.05450000     -75.03010000
H      -47.99960000     -35.84660000     -75.03640000
C      -48.81250000     -31.74640000     -70.97910000
H      -48.20610000     -31.21560000     -71.78370000
H      -49.75630000     -31.30040000     -70.79220000
S      -45.77830000     -35.68650000     -74.17620000
S      -47.84980000     -31.44190000     -69.43600000
C      -45.16930000     -34.87530000     -72.67440000
H      -46.02960000     -34.85510000     -71.95080000
H      -44.34790000     -35.51370000     -72.31860000
C      -46.08470000     -31.55600000     -69.98810000
H      -45.51230000     -30.71540000     -69.55790000
H      -46.14440000     -31.57220000     -71.06530000
C      -45.43090000     -32.87740000     -69.51030000
H      -45.84460000     -33.07120000     -68.45670000
H      -45.71080000     -33.54850000     -70.22940000
C      -44.55900000     -33.46570000     -72.76990000
H      -45.27320000     -32.79250000     -72.33200000
H      -44.46800000     -33.23190000     -73.84690000
C      -43.21390000     -33.26900000     -72.11710000
C      -41.97410000     -33.33590000     -72.72270000
C      -43.04770000     -32.81360000     -70.72020000
H      -41.80100000     -33.65020000     -73.75030000
C      -41.74190000     -32.53330000     -70.35160000
C      -43.94700000     -32.81380000     -69.59190000
C      -43.27080000     -32.42510000     -68.42570000
S      -40.63290000     -32.77580000     -71.70650000
S      -41.49160000     -32.32850000     -68.63600000
H      -43.82930000     -32.32090000     -67.49960000
