40
Properties=species:S:1:pos:R:3 #=T CELL(abcABC):=T 1.889726e+02=T 90.00000=T Traj:=T positionsangstrom=T Step:=T 0=T Bead:=T pbc="F F F"
C      -45.29070000     -29.55220000     -73.24410000
C      -45.69680000     -30.75660000     -73.69990000
C      -46.80600000     -31.44720000     -73.09970000
C      -47.41650000     -30.86960000     -71.99630000
C      -47.00260000     -29.61690000     -71.60210000
C      -45.97680000     -28.89980000     -72.20440000
H      -44.47370000     -28.96020000     -73.69530000
H      -47.16400000     -32.43010000     -73.28140000
H      -47.49220000     -29.19620000     -70.78540000
H      -45.56660000     -27.98180000     -71.88990000
C      -48.65590000     -31.50230000     -71.44060000
H      -48.99220000     -32.18370000     -72.22210000
H      -49.39870000     -30.75450000     -71.44830000
C      -44.90860000     -31.54610000     -74.74030000
H      -45.56920000     -31.86010000     -75.52910000
H      -44.08760000     -30.98840000     -75.30180000
S      -48.69890000     -32.32260000     -69.73150000
S      -44.25390000     -33.03840000     -73.95730000
C      -47.11990000     -33.23630000     -69.65840000
H      -46.30190000     -32.51510000     -69.45460000
H      -47.05940000     -33.75290000     -68.72400000
C      -43.21530000     -32.34350000     -72.57820000
H      -43.37700000     -31.27550000     -72.61750000
H      -42.17030000     -32.58520000     -72.62730000
C      -43.74090000     -32.67260000     -71.20610000
H      -43.38390000     -31.85630000     -70.52860000
H      -44.82610000     -32.51680000     -71.23300000
C      -46.88180000     -34.17360000     -70.88360000
H      -46.61290000     -33.59580000     -71.76640000
H      -47.80860000     -34.78240000     -70.97900000
C      -45.80560000     -35.24320000     -70.56840000
C      -46.20410000     -36.51830000     -70.16800000
C      -44.36600000     -35.07940000     -70.43080000
H      -47.21260000     -36.78270000     -70.37860000
C      -43.77190000     -36.24730000     -69.92310000
C      -43.45090000     -34.03120000     -70.67590000
C      -42.19960000     -34.40490000     -70.28700000
S      -44.88530000     -37.52620000     -69.59950000
S      -42.04490000     -36.13490000     -69.72710000
H      -41.31730000     -33.70410000     -70.40340000
