40
Properties=species:S:1:pos:R:3 #=T CELL(abcABC):=T 1.889726e+02=T 90.00000=T Traj:=T positionsangstrom=T Step:=T 0=T Bead:=T pbc="F F F"
C      -46.98360000     -36.23670000     -73.36200000
C      -47.04640000     -36.22980000     -71.97520000
C      -45.86600000     -36.40430000     -71.23170000
C      -44.60030000     -36.48710000     -71.90850000
C      -44.61220000     -36.47850000     -73.32000000
C      -45.77520000     -36.44690000     -74.03960000
H      -47.90440000     -36.24380000     -73.92700000
H      -46.02650000     -36.32150000     -70.16060000
H      -43.68490000     -36.69200000     -73.82310000
H      -45.73450000     -36.55760000     -75.09290000
C      -43.26840000     -36.54900000     -71.14080000
H      -42.88390000     -37.57820000     -71.22590000
H      -43.51940000     -36.36670000     -70.04810000
C      -48.36160000     -36.01560000     -71.26740000
H      -49.27880000     -36.20030000     -71.76940000
H      -48.37610000     -36.47080000     -70.28520000
S      -41.94810000     -35.40190000     -71.72070000
S      -48.59460000     -34.12680000     -71.01820000
C      -42.80800000     -33.74900000     -71.77500000
H      -42.17190000     -33.25170000     -72.44110000
H      -43.81570000     -33.88670000     -72.17000000
C      -47.82710000     -33.90300000     -69.41940000
H      -47.91670000     -34.88660000     -68.87420000
H      -48.44410000     -33.24260000     -68.78760000
C      -46.39630000     -33.38410000     -69.34630000
H      -46.21980000     -33.32300000     -68.26770000
H      -45.69280000     -34.16450000     -69.72810000
C      -42.92310000     -33.10980000     -70.44520000
H      -41.92480000     -32.93560000     -69.98200000
H      -43.52110000     -33.69090000     -69.73560000
C      -43.54010000     -31.76750000     -70.69500000
C      -42.75490000     -30.75050000     -71.11580000
C      -44.93690000     -31.42340000     -70.60480000
H      -41.68210000     -30.86060000     -71.16470000
C      -45.12500000     -30.14890000     -71.16050000
C      -46.17020000     -31.98950000     -70.06330000
C      -47.22810000     -31.15340000     -70.34370000
S      -43.57190000     -29.38020000     -71.65450000
S      -46.80290000     -29.63750000     -71.04770000
H      -48.35200000     -31.30650000     -70.08990000
