40
Properties=species:S:1:pos:R:3 #=T CELL(abcABC):=T 1.889726e+02=T 90.00000=T Traj:=T positionsangstrom=T Step:=T 0=T Bead:=T pbc="F F F"
C      -46.91380000     -36.38410000     -73.25560000
C      -46.95490000     -36.34190000     -71.85250000
C      -45.82490000     -36.47330000     -71.14820000
C      -44.52790000     -36.63980000     -71.80310000
C      -44.48530000     -36.49350000     -73.20950000
C      -45.67390000     -36.43390000     -73.90650000
H      -47.83240000     -36.40140000     -73.78010000
H      -45.84360000     -36.53220000     -70.04650000
H      -43.59610000     -36.34270000     -73.80550000
H      -45.70400000     -36.27680000     -74.98850000
C      -43.34290000     -36.68270000     -70.92360000
H      -42.87790000     -37.68570000     -70.88010000
H      -43.53810000     -36.51760000     -69.89810000
C      -48.29330000     -36.06400000     -71.17570000
H      -49.04290000     -36.42610000     -71.89610000
H      -48.33050000     -36.62520000     -70.23380000
S      -41.99720000     -35.66180000     -71.67300000
S      -48.50950000     -34.24010000     -71.02130000
C      -42.85240000     -34.00450000     -71.75590000
H      -42.26300000     -33.24450000     -72.36630000
H      -43.84020000     -34.14350000     -72.20860000
C      -47.83290000     -33.76990000     -69.34700000
H      -47.85490000     -34.57590000     -68.69130000
H      -48.54160000     -33.02430000     -68.89440000
C      -46.40660000     -33.24730000     -69.53530000
H      -45.88560000     -33.35470000     -68.55070000
H      -45.95120000     -33.91070000     -70.22110000
C      -43.07630000     -33.12530000     -70.47620000
H      -42.13520000     -32.93760000     -70.02370000
H      -43.71890000     -33.68100000     -69.77020000
C      -43.64210000     -31.76760000     -70.90200000
C      -42.85210000     -30.84470000     -71.48380000
C      -44.99590000     -31.25990000     -70.63700000
H      -41.87070000     -30.90470000     -71.81380000
C      -45.09560000     -29.93130000     -71.10490000
C      -46.24400000     -31.79580000     -70.07550000
C      -47.26190000     -30.92100000     -70.26020000
S      -43.68060000     -29.30610000     -71.82720000
S      -46.71140000     -29.36410000     -71.04410000
H      -48.28530000     -31.13080000     -69.86070000
