40
Properties=species:S:1:pos:R:3 #=T CELL(abcABC):=T 1.889726e+02=T 90.00000=T Traj:=T positionsangstrom=T Step:=T 0=T Bead:=T pbc="F F F"
C      -48.83090000     -34.19290000     -70.12060000
C      -48.69290000     -33.04570000     -70.91710000
C      -48.24440000     -33.11460000     -72.20330000
C      -48.01380000     -34.40450000     -72.77110000
C      -48.37520000     -35.57000000     -72.08170000
C      -48.71240000     -35.41790000     -70.72300000
H      -49.06730000     -34.07550000     -69.03360000
H      -48.19730000     -32.13890000     -72.70460000
H      -48.19980000     -36.41230000     -72.67990000
H      -48.79060000     -36.28910000     -70.06150000
C      -47.59910000     -34.43520000     -74.24170000
H      -47.38440000     -33.39870000     -74.56050000
H      -48.49310000     -34.78990000     -74.83750000
C      -48.86950000     -31.58410000     -70.33210000
H      -48.46140000     -30.93320000     -71.04140000
H      -49.90920000     -31.44160000     -70.08260000
S      -46.14990000     -35.47740000     -74.79640000
S      -47.84660000     -31.31680000     -68.83990000
C      -44.80410000     -35.15840000     -73.50290000
H      -45.08700000     -35.53250000     -72.56880000
H      -43.84520000     -35.67250000     -73.75790000
C      -46.13060000     -31.42400000     -69.45290000
H      -45.56710000     -30.96000000     -68.67260000
H      -46.02440000     -30.68350000     -70.18550000
C      -45.65530000     -32.80860000     -69.91230000
H      -46.12010000     -33.63590000     -69.35740000
H      -46.04960000     -33.02780000     -70.84820000
C      -44.54340000     -33.63540000     -73.24610000
H      -45.35320000     -33.22840000     -72.68950000
H      -44.34120000     -33.04590000     -74.17950000
C      -43.27820000     -33.41490000     -72.45790000
C      -42.00060000     -33.35770000     -73.00740000
C      -43.25730000     -33.19830000     -70.99060000
H      -41.88340000     -33.51340000     -74.04880000
C      -41.94890000     -33.14480000     -70.59750000
C      -44.10350000     -32.89780000     -69.87600000
C      -43.45360000     -32.54490000     -68.72080000
S      -40.75130000     -33.11850000     -71.79820000
S      -41.70440000     -32.67880000     -68.91890000
H      -43.81180000     -32.28960000     -67.73950000
