40
Properties=species:S:1:pos:R:3 #=T CELL(abcABC):=T 1.889726e+02=T 90.00000=T Traj:=T positionsangstrom=T Step:=T 0=T Bead:=T pbc="F F F"
C      -49.39250000     -34.03560000     -70.60630000
C      -48.87690000     -32.86350000     -71.20020000
C      -48.31110000     -33.04870000     -72.45130000
C      -48.07680000     -34.22980000     -73.15230000
C      -48.48860000     -35.40900000     -72.46390000
C      -49.15460000     -35.25840000     -71.26820000
H      -49.88200000     -33.92500000     -69.69460000
H      -47.96110000     -32.17750000     -73.03100000
H      -48.49090000     -36.40450000     -72.85690000
H      -49.44650000     -36.14200000     -70.74210000
C      -47.33340000     -34.27230000     -74.47420000
H      -47.01460000     -33.25020000     -74.73330000
H      -47.96800000     -34.58590000     -75.30200000
C      -48.80200000     -31.46210000     -70.64300000
H      -48.44380000     -30.69870000     -71.28010000
H      -49.67360000     -31.12310000     -70.17020000
S      -46.02930000     -35.56370000     -74.41010000
S      -47.67730000     -31.31100000     -69.16110000
C      -44.88620000     -34.89140000     -73.05180000
H      -45.44900000     -35.16060000     -72.10060000
H      -43.90210000     -35.41060000     -73.10850000
C      -45.93970000     -31.58670000     -69.80060000
H      -45.30430000     -30.93200000     -69.19370000
H      -45.90210000     -31.15580000     -70.83870000
C      -45.54440000     -33.05990000     -69.61290000
H      -46.06130000     -33.55370000     -68.72270000
H      -45.90980000     -33.51790000     -70.52420000
C      -44.62710000     -33.39400000     -72.99940000
H      -45.53840000     -32.86660000     -72.51590000
H      -44.67890000     -32.95320000     -74.05870000
C      -43.35110000     -33.05620000     -72.25640000
C      -42.14280000     -32.88300000     -72.91210000
C      -43.18990000     -33.11080000     -70.76540000
H      -42.09480000     -32.79690000     -74.05340000
C      -41.83450000     -33.02260000     -70.40820000
C      -44.08500000     -33.32120000     -69.56010000
C      -43.37180000     -33.33340000     -68.42340000
S      -40.75010000     -32.78710000     -71.74600000
S      -41.63170000     -33.37690000     -68.66070000
H      -43.77270000     -33.42770000     -67.40550000
