40
Properties=species:S:1:pos:R:3 #=T CELL(abcABC):=T 1.889726e+02=T 90.00000=T Traj:=T positionsangstrom=T Step:=T 0=T Bead:=T pbc="F F F"
C      -49.29900000     -33.96850000     -70.42900000
C      -48.75970000     -32.85170000     -71.12330000
C      -48.25110000     -33.10470000     -72.44380000
C      -48.27460000     -34.34490000     -73.06010000
C      -48.78710000     -35.42450000     -72.33970000
C      -49.30760000     -35.21050000     -71.03720000
H      -49.63000000     -33.89770000     -69.39040000
H      -47.72670000     -32.37320000     -72.99370000
H      -48.73440000     -36.47580000     -72.69050000
H      -49.71410000     -36.02090000     -70.44310000
C      -47.68510000     -34.34540000     -74.40890000
H      -47.49010000     -33.27940000     -74.84780000
H      -48.34140000     -34.92700000     -75.04480000
C      -48.72630000     -31.42160000     -70.54140000
H      -48.43330000     -30.75030000     -71.34030000
H      -49.70150000     -31.12090000     -70.19370000
S      -46.10820000     -35.33680000     -74.51600000
S      -47.51820000     -31.27950000     -69.10430000
C      -44.96990000     -34.85660000     -73.10050000
H      -45.47200000     -35.13950000     -72.16430000
H      -44.12410000     -35.54600000     -73.13870000
C      -45.98800000     -31.70550000     -70.10950000
H      -45.21660000     -30.92860000     -69.69720000
H      -46.18840000     -31.49750000     -71.21120000
C      -45.51330000     -33.14420000     -69.81590000
H      -45.93960000     -33.44540000     -68.85860000
H      -45.90530000     -33.93840000     -70.54630000
C      -44.55680000     -33.42220000     -73.05990000
H      -45.42200000     -32.85650000     -72.59960000
H      -44.35010000     -33.10340000     -74.11090000
C      -43.30950000     -33.28930000     -72.28560000
C      -42.01390000     -33.25470000     -72.84630000
C      -43.21120000     -33.32210000     -70.82860000
H      -41.86390000     -33.16530000     -73.92270000
C      -41.88850000     -33.12580000     -70.41150000
C      -44.01200000     -33.18260000     -69.64090000
C      -43.35370000     -33.07520000     -68.44070000
S      -40.70130000     -33.08190000     -71.65550000
S      -41.55670000     -33.00190000     -68.73740000
H      -43.79120000     -32.72960000     -67.52830000
