40
Properties=species:S:1:pos:R:3 #=T CELL(abcABC):=T 1.889726e+02=T 90.00000=T Traj:=T positionsangstrom=T Step:=T 0=T Bead:=T pbc="F F F"
C      -45.83480000     -29.48010000     -72.95040000
C      -46.02440000     -30.73270000     -73.55410000
C      -46.97360000     -31.65390000     -72.99430000
C      -47.83490000     -31.21820000     -71.93000000
C      -47.77000000     -29.84930000     -71.45830000
C      -46.73950000     -29.05430000     -71.94460000
H      -45.09850000     -28.83260000     -73.41510000
H      -47.12070000     -32.71340000     -73.26720000
H      -48.46230000     -29.32980000     -70.80050000
H      -46.70620000     -28.07970000     -71.52640000
C      -48.92790000     -32.09300000     -71.27660000
H      -48.97870000     -33.00510000     -71.85690000
H      -49.89630000     -31.56940000     -71.39010000
C      -45.07990000     -31.09190000     -74.68090000
H      -45.54970000     -31.26410000     -75.71110000
H      -44.48830000     -30.20850000     -74.93390000
S      -48.71020000     -32.39540000     -69.41180000
S      -44.00080000     -32.56670000     -74.33990000
C      -47.64660000     -33.86690000     -69.28810000
H      -47.80300000     -34.47420000     -68.31250000
H      -47.92370000     -34.52780000     -70.14970000
C      -43.06500000     -32.19610000     -72.80300000
H      -43.04120000     -31.14650000     -72.72030000
H      -42.03660000     -32.54710000     -72.94770000
C      -43.65300000     -32.68540000     -71.48650000
H      -43.34480000     -32.01020000     -70.70860000
H      -44.68420000     -32.74190000     -71.69990000
C      -46.07530000     -33.69010000     -69.56100000
H      -45.60020000     -33.08970000     -68.78850000
H      -46.05330000     -33.13800000     -70.50710000
C      -45.39830000     -35.01340000     -69.71920000
C      -45.88080000     -36.22010000     -69.29840000
C      -44.11570000     -35.02450000     -70.32780000
H      -46.81580000     -36.52620000     -68.80640000
C      -43.60270000     -36.31040000     -70.33290000
C      -43.27910000     -34.07750000     -71.00460000
C      -42.04460000     -34.61690000     -71.28300000
S      -44.68170000     -37.41660000     -69.55630000
S      -41.88550000     -36.31380000     -70.75260000
H      -41.34100000     -34.26110000     -72.02270000
