40
Properties=species:S:1:pos:R:3 #=T CELL(abcABC):=T 1.889726e+02=T 90.00000=T Traj:=T positionsangstrom=T Step:=T 0=T Bead:=T pbc="F F F"
C      -45.59330000     -29.77290000     -72.88740000
C      -45.92780000     -31.06450000     -73.37080000
C      -47.01060000     -31.68580000     -72.78540000
C      -47.73290000     -31.24110000     -71.68990000
C      -47.29540000     -29.99110000     -71.15060000
C      -46.24400000     -29.30320000     -71.71710000
H      -44.84710000     -29.15150000     -73.35610000
H      -47.35590000     -32.58330000     -73.23300000
H      -47.64290000     -29.61830000     -70.18110000
H      -46.01170000     -28.32140000     -71.27750000
C      -48.90550000     -31.97770000     -71.02150000
H      -48.94200000     -32.97040000     -71.48760000
H      -49.82860000     -31.45610000     -71.27290000
C      -45.27430000     -31.69450000     -74.60490000
H      -46.11150000     -32.24620000     -75.03890000
H      -45.02610000     -30.90970000     -75.21900000
S      -48.81240000     -32.14760000     -69.18560000
S      -43.77010000     -32.74390000     -74.22180000
C      -47.73270000     -33.76920000     -69.16290000
H      -48.01320000     -34.23890000     -68.17630000
H      -48.26730000     -34.34230000     -69.94020000
C      -43.00050000     -31.96440000     -72.77140000
H      -43.11730000     -30.84980000     -72.84720000
H      -41.88510000     -32.11590000     -72.95090000
C      -43.63870000     -32.59550000     -71.53080000
H      -43.33180000     -32.05040000     -70.62330000
H      -44.74860000     -32.62020000     -71.53410000
C      -46.25180000     -33.53070000     -69.47690000
H      -45.77950000     -32.89450000     -68.64340000
H      -46.10250000     -32.97810000     -70.39090000
C      -45.41350000     -34.73550000     -69.62960000
C      -45.63940000     -35.84620000     -68.93440000
C      -44.23550000     -34.85000000     -70.52520000
H      -46.50960000     -36.09870000     -68.25920000
C      -43.73520000     -36.15880000     -70.50620000
C      -43.34260000     -34.07290000     -71.33940000
C      -42.44280000     -34.77850000     -72.06710000
S      -44.53500000     -37.25090000     -69.43020000
S      -42.34270000     -36.48140000     -71.56290000
H      -41.94440000     -34.32300000     -72.92410000
