40
Properties=species:S:1:pos:R:3 #=T CELL(abcABC):=T 1.889726e+02=T 90.00000=T Traj:=T positionsangstrom=T Step:=T 0=T Bead:=T pbc="F F F"
C      -46.58690000     -29.91800000     -73.83800000
C      -46.20880000     -31.31450000     -73.79730000
C      -47.04020000     -32.19250000     -73.08470000
C      -48.06800000     -31.67490000     -72.27800000
C      -48.24430000     -30.29650000     -72.20860000
C      -47.51600000     -29.38010000     -72.92910000
H      -46.00120000     -29.23400000     -74.42540000
H      -46.93180000     -33.29780000     -73.04220000
H      -49.09560000     -29.87120000     -71.55280000
H      -47.73440000     -28.30480000     -72.80960000
C      -48.97630000     -32.66330000     -71.53930000
H      -48.78440000     -33.65270000     -71.89790000
H      -49.96690000     -32.23680000     -71.67890000
C      -45.25870000     -31.84850000     -74.83770000
H      -45.84460000     -32.51630000     -75.50350000
H      -44.81840000     -31.05080000     -75.43850000
S      -48.73550000     -32.64010000     -69.66550000
S      -43.84850000     -32.95310000     -74.15790000
C      -47.41440000     -33.80030000     -69.21210000
H      -47.68130000     -34.35620000     -68.27520000
H      -47.36900000     -34.60220000     -69.94110000
C      -42.95500000     -31.96770000     -72.86650000
H      -43.24030000     -30.96840000     -72.87310000
H      -41.94260000     -32.20400000     -73.04250000
C      -43.48370000     -32.35770000     -71.45410000
H      -43.08470000     -31.71640000     -70.72820000
H      -44.57010000     -32.15490000     -71.43810000
C      -45.97500000     -33.17180000     -69.06020000
H      -46.04600000     -32.65150000     -68.06040000
H      -45.78540000     -32.48640000     -69.84750000
C      -44.95880000     -34.34320000     -69.04900000
C      -45.18320000     -35.38910000     -68.19070000
C      -43.95630000     -34.55470000     -70.03370000
H      -45.92990000     -35.43930000     -67.43420000
C      -43.48430000     -35.87610000     -69.95670000
C      -43.21840000     -33.77200000     -71.04310000
C      -42.26970000     -34.52130000     -71.72390000
S      -44.15260000     -36.72160000     -68.61440000
S      -42.17430000     -36.26570000     -71.13630000
H      -41.64570000     -34.28450000     -72.64350000
