40
Properties=species:S:1:pos:R:3 #=T CELL(abcABC):=T 1.889726e+02=T 90.00000=T Traj:=T positionsangstrom=T Step:=T 0=T Bead:=T pbc="F F F"
C      -45.67870000     -29.75440000     -72.93720000
C      -45.94240000     -31.05080000     -73.38590000
C      -46.89940000     -31.86240000     -72.79350000
C      -47.72670000     -31.39320000     -71.80540000
C      -47.39740000     -30.10150000     -71.31480000
C      -46.44310000     -29.28440000     -71.85620000
H      -44.97470000     -29.08840000     -73.38650000
H      -47.05800000     -32.79180000     -73.32280000
H      -47.83600000     -29.68830000     -70.47350000
H      -46.33620000     -28.28910000     -71.41820000
C      -48.86510000     -32.14210000     -71.13420000
H      -49.01910000     -33.11770000     -71.64310000
H      -49.75450000     -31.45450000     -71.21940000
C      -45.24720000     -31.50940000     -74.64940000
H      -45.86070000     -32.14180000     -75.30010000
H      -45.04570000     -30.58440000     -75.32260000
S      -48.69590000     -32.32810000     -69.22810000
S      -43.82520000     -32.62320000     -74.32200000
C      -47.55480000     -33.61860000     -68.98020000
H      -47.46160000     -33.77370000     -67.92120000
H      -47.89220000     -34.58110000     -69.33570000
C      -42.94020000     -31.97140000     -72.82650000
H      -43.15140000     -30.90990000     -72.84470000
H      -41.89580000     -32.19140000     -72.90210000
C      -43.48360000     -32.47670000     -71.43880000
H      -43.02020000     -31.95480000     -70.62370000
H      -44.48030000     -32.05070000     -71.46830000
C      -46.13910000     -33.47190000     -69.54320000
H      -45.59940000     -32.79240000     -68.92910000
H      -46.27380000     -32.92200000     -70.41110000
C      -45.37680000     -34.78680000     -69.63370000
C      -45.70040000     -35.86590000     -68.91090000
C      -44.20190000     -34.92390000     -70.44460000
H      -46.46110000     -36.05550000     -68.13330000
C      -43.75130000     -36.22850000     -70.39450000
C      -43.38230000     -34.00980000     -71.32650000
C      -42.39630000     -34.74440000     -71.96420000
S      -44.66270000     -37.21420000     -69.26570000
S      -42.44040000     -36.43030000     -71.52660000
H      -41.57650000     -34.32660000     -72.54370000
