40
Properties=species:S:1:pos:R:3 #=T CELL(abcABC):=T 1.889726e+02=T 90.00000=T Traj:=T positionsangstrom=T Step:=T 0=T Bead:=T pbc="F F F"
C      -45.93970000     -29.60960000     -73.06930000
C      -46.00690000     -30.97060000     -73.45280000
C      -46.90820000     -31.85680000     -72.86200000
C      -47.74180000     -31.38280000     -71.83620000
C      -47.48080000     -30.11580000     -71.37700000
C      -46.68590000     -29.13850000     -72.04600000
H      -45.28000000     -28.91480000     -73.63700000
H      -46.83200000     -32.91750000     -73.08640000
H      -48.09960000     -29.59960000     -70.66500000
H      -46.66960000     -28.12680000     -71.67150000
C      -48.62590000     -32.40700000     -71.16950000
H      -48.29480000     -33.40290000     -71.25790000
H      -49.64230000     -32.51410000     -71.50140000
C      -45.12250000     -31.36830000     -74.64780000
H      -45.59900000     -31.78120000     -75.50130000
H      -44.49640000     -30.53500000     -74.93960000
S      -48.67170000     -32.12230000     -69.32270000
S      -43.88880000     -32.78680000     -74.36150000
C      -47.50380000     -33.60400000     -68.85090000
H      -47.53450000     -33.68150000     -67.73240000
H      -47.96560000     -34.47770000     -69.37390000
C      -43.10100000     -32.05600000     -72.79120000
H      -43.25750000     -30.95280000     -72.83470000
H      -42.02410000     -32.12590000     -72.89730000
C      -43.65150000     -32.65100000     -71.58460000
H      -43.21260000     -31.98850000     -70.73640000
H      -44.78100000     -32.57580000     -71.55720000
C      -46.15610000     -33.32840000     -69.36700000
H      -45.59010000     -32.70950000     -68.68750000
H      -46.09580000     -32.89450000     -70.42800000
C      -45.30260000     -34.66690000     -69.51490000
C      -45.56930000     -35.79670000     -68.80730000
C      -44.12830000     -34.86540000     -70.33790000
H      -46.39150000     -35.99930000     -68.16080000
C      -43.72380000     -36.20580000     -70.31140000
C      -43.32170000     -34.07530000     -71.29960000
C      -42.38950000     -34.85170000     -71.96700000
S      -44.66250000     -37.22960000     -69.33620000
S      -42.32560000     -36.51700000     -71.33850000
H      -41.56230000     -34.53480000     -72.57010000
