40
Properties=species:S:1:pos:R:3 #=T CELL(abcABC):=T 1.889726e+02=T 90.00000=T Traj:=T positionsangstrom=T Step:=T 0=T Bead:=T pbc="F F F"
C      -46.33340000     -30.26070000     -73.95960000
C      -46.44500000     -31.63240000     -74.15600000
C      -47.33470000     -32.40760000     -73.45060000
C      -48.10930000     -31.85200000     -72.45590000
C      -47.99250000     -30.46950000     -72.14250000
C      -47.07010000     -29.69540000     -72.89640000
H      -45.65370000     -29.55950000     -74.48210000
H      -47.29200000     -33.48640000     -73.59350000
H      -48.67390000     -30.08610000     -71.26960000
H      -46.92250000     -28.63340000     -72.65610000
C      -49.12930000     -32.66480000     -71.75360000
H      -49.11220000     -33.68020000     -72.08160000
H      -50.16180000     -32.22610000     -71.80490000
C      -45.63870000     -32.31320000     -75.23990000
H      -46.30760000     -33.06120000     -75.66920000
H      -45.29490000     -31.60300000     -75.98320000
S      -48.88030000     -32.61460000     -69.83810000
S      -44.12850000     -33.25780000     -74.51300000
C      -47.63450000     -34.02500000     -69.50000000
H      -47.94230000     -34.54620000     -68.58430000
H      -47.70110000     -34.70150000     -70.38200000
C      -43.51840000     -32.18270000     -73.10790000
H      -43.72930000     -31.14760000     -73.37120000
H      -42.42480000     -32.22640000     -73.16820000
C      -44.08850000     -32.59850000     -71.76550000
H      -44.19830000     -31.71550000     -71.15610000
H      -45.11960000     -33.01600000     -71.91490000
C      -46.23020000     -33.47320000     -69.41100000
H      -46.20330000     -32.71090000     -68.57230000
H      -46.04010000     -32.93160000     -70.24490000
C      -45.16420000     -34.44930000     -69.21590000
C      -45.18400000     -35.37700000     -68.23820000
C      -43.89260000     -34.48310000     -69.99080000
H      -45.87110000     -35.60940000     -67.45100000
C      -43.07550000     -35.41030000     -69.42660000
C      -43.29560000     -33.73990000     -71.05530000
C      -42.00700000     -34.14860000     -71.27260000
S      -43.74490000     -36.36690000     -68.13410000
S      -41.54070000     -35.42730000     -70.24520000
H      -41.40800000     -33.65290000     -72.02770000
