40
Properties=species:S:1:pos:R:3 #=T CELL(abcABC):=T 1.889726e+02=T 90.00000=T Traj:=T positionsangstrom=T Step:=T 0=T Bead:=T pbc="F F F"
C      -49.37790000     -33.31580000     -71.18870000
C      -48.59690000     -32.15420000     -71.15350000
C      -47.80450000     -31.80040000     -72.26210000
C      -47.78640000     -32.62120000     -73.39140000
C      -48.57260000     -33.77570000     -73.37170000
C      -49.35770000     -34.14650000     -72.27490000
H      -49.93560000     -33.59420000     -70.30110000
H      -47.31190000     -30.83120000     -72.20750000
H      -48.59330000     -34.44270000     -74.19730000
H      -49.93530000     -35.05920000     -72.11960000
C      -46.89740000     -32.18240000     -74.55470000
H      -46.37660000     -31.23920000     -74.29480000
H      -47.45040000     -31.96480000     -75.42250000
C      -48.63300000     -31.38760000     -69.80570000
H      -48.26450000     -30.40140000     -69.74040000
H      -49.67660000     -31.40830000     -69.38940000
S      -45.70100000     -33.47340000     -75.09380000
S      -47.72480000     -32.26160000     -68.39040000
C      -45.02450000     -33.79510000     -73.44990000
H      -45.76740000     -33.72120000     -72.64280000
H      -44.56800000     -34.75210000     -73.43760000
C      -45.91760000     -31.86430000     -68.85510000
H      -45.36380000     -31.98390000     -67.98060000
H      -45.99530000     -30.80370000     -69.10950000
C      -45.51250000     -32.74750000     -69.97950000
H      -46.36510000     -33.35010000     -70.27590000
H      -45.38280000     -32.03550000     -70.84390000
C      -43.89400000     -32.80120000     -73.12040000
H      -44.28120000     -31.85910000     -72.84250000
H      -43.23200000     -32.57640000     -74.05810000
C      -42.93910000     -33.43530000     -72.12480000
C      -41.63980000     -33.83980000     -72.48810000
C      -43.28800000     -33.85690000     -70.81810000
H      -41.23750000     -33.67720000     -73.52710000
C      -42.19430000     -34.56370000     -70.25990000
C      -44.35820000     -33.70130000     -69.82390000
C      -44.10250000     -34.37640000     -68.68140000
S      -40.76950000     -34.64800000     -71.24210000
S      -42.55420000     -35.23070000     -68.67710000
H      -44.73590000     -34.45430000     -67.70470000
