40
Properties=species:S:1:pos:R:3 #=T CELL(abcABC):=T 1.889726e+02=T 90.00000=T Traj:=T positionsangstrom=T Step:=T 0=T Bead:=T pbc="F F F"
C      -46.46470000     -30.10230000     -73.90790000
C      -46.30800000     -31.47460000     -73.95580000
C      -47.20500000     -32.29230000     -73.31590000
C      -48.14970000     -31.69780000     -72.42550000
C      -48.25330000     -30.29690000     -72.27150000
C      -47.37170000     -29.51440000     -73.05170000
H      -45.66810000     -29.50900000     -74.28520000
H      -46.94560000     -33.34060000     -73.35520000
H      -48.81330000     -29.89790000     -71.50170000
H      -47.46580000     -28.43760000     -72.89530000
C      -49.00140000     -32.71630000     -71.68610000
H      -48.65710000     -33.74870000     -72.01940000
H      -49.98370000     -32.47740000     -71.99320000
C      -45.28540000     -32.07720000     -74.89050000
H      -45.76080000     -32.71600000     -75.62220000
H      -44.79380000     -31.28590000     -75.39470000
S      -48.80720000     -32.68080000     -69.88650000
S      -44.03200000     -33.20170000     -74.08820000
C      -47.59120000     -33.89060000     -69.35380000
H      -47.87920000     -34.25340000     -68.33840000
H      -47.58560000     -34.72230000     -70.07550000
C      -43.18930000     -32.01800000     -72.97900000
H      -43.41590000     -31.03180000     -73.32190000
H      -42.13410000     -32.14480000     -73.06430000
C      -43.67810000     -32.32190000     -71.57200000
H      -43.23120000     -31.50870000     -70.96280000
H      -44.69350000     -32.17680000     -71.49430000
C      -46.17840000     -33.28520000     -69.23480000
H      -46.19480000     -32.62390000     -68.35140000
H      -45.89640000     -32.63280000     -70.10900000
C      -45.10600000     -34.39600000     -69.13910000
C      -45.12960000     -35.37960000     -68.21260000
C      -43.93080000     -34.49490000     -69.96480000
H      -45.94590000     -35.40980000     -67.47910000
C      -43.24520000     -35.67930000     -69.70660000
C      -43.29420000     -33.74420000     -71.04650000
C      -42.19890000     -34.34750000     -71.54210000
S      -43.89850000     -36.54330000     -68.37680000
S      -41.87380000     -35.86980000     -70.72800000
H      -41.60440000     -33.99540000     -72.36410000
