40
Properties=species:S:1:pos:R:3 #=T CELL(abcABC):=T 1.889726e+02=T 90.00000=T Traj:=T positionsangstrom=T Step:=T 0=T Bead:=T pbc="F F F"
C      -46.19240000     -30.40570000     -73.91030000
C      -46.38680000     -31.79690000     -74.13740000
C      -47.28740000     -32.52500000     -73.34300000
C      -48.08170000     -31.85240000     -72.40460000
C      -47.89430000     -30.48190000     -72.14860000
C      -46.93810000     -29.76200000     -72.89410000
H      -45.53920000     -29.76920000     -74.50590000
H      -47.47700000     -33.59720000     -73.48380000
H      -48.54050000     -30.05430000     -71.30750000
H      -46.75240000     -28.68410000     -72.70680000
C      -49.17460000     -32.55900000     -71.57880000
H      -49.23850000     -33.58130000     -72.08730000
H      -50.09620000     -32.04530000     -71.77800000
C      -45.54150000     -32.43920000     -75.26690000
H      -46.17570000     -33.06550000     -75.88030000
H      -45.18360000     -31.66320000     -75.94000000
S      -49.03520000     -32.69480000     -69.80870000
S      -44.10150000     -33.44130000     -74.66060000
C      -47.67980000     -33.90880000     -69.55760000
H      -47.88430000     -34.53800000     -68.67950000
H      -47.65880000     -34.49470000     -70.48680000
C      -43.58430000     -32.31570000     -73.29700000
H      -43.76220000     -31.24350000     -73.55290000
H      -42.50380000     -32.41680000     -73.19850000
C      -44.20330000     -32.67240000     -71.95420000
H      -44.49250000     -31.69900000     -71.44900000
H      -45.13970000     -33.17570000     -72.04970000
C      -46.25600000     -33.38870000     -69.33290000
H      -46.23340000     -32.70320000     -68.41320000
H      -46.00400000     -32.71270000     -70.13970000
C      -45.21310000     -34.42980000     -69.18340000
C      -45.26330000     -35.46450000     -68.25310000
C      -43.94790000     -34.40360000     -69.96050000
H      -46.03420000     -35.73270000     -67.50400000
C      -43.06020000     -35.27720000     -69.38470000
C      -43.36900000     -33.62000000     -71.09170000
C      -42.03600000     -33.94650000     -71.35260000
S      -43.70310000     -36.30150000     -68.12370000
S      -41.46840000     -35.20370000     -70.10740000
H      -41.30180000     -33.43520000     -72.04180000
