40
Properties=species:S:1:pos:R:3 #=T CELL(abcABC):=T 1.889726e+02=T 90.00000=T Traj:=T positionsangstrom=T Step:=T 0=T Bead:=T pbc="F F F"
C      -46.12770000     -30.56040000     -73.93300000
C      -46.48210000     -31.91140000     -74.25230000
C      -47.49000000     -32.51200000     -73.44550000
C      -48.06040000     -31.85870000     -72.32320000
C      -47.70940000     -30.51980000     -72.03200000
C      -46.77180000     -29.89430000     -72.85590000
H      -45.40330000     -30.07300000     -74.53180000
H      -47.83320000     -33.52730000     -73.57680000
H      -48.13330000     -29.91310000     -71.22720000
H      -46.44120000     -28.84360000     -72.76280000
C      -49.21580000     -32.60710000     -71.72980000
H      -49.38790000     -33.64080000     -72.12040000
H      -50.11640000     -32.07610000     -71.89870000
C      -45.71410000     -32.62910000     -75.30090000
H      -46.22390000     -33.42150000     -75.83410000
H      -45.33930000     -31.86990000     -76.07490000
S      -49.09780000     -32.75870000     -69.85300000
S      -44.20140000     -33.46620000     -74.67960000
C      -47.70790000     -34.02790000     -69.66040000
H      -48.03250000     -34.75620000     -68.90450000
H      -47.73740000     -34.64770000     -70.53270000
C      -43.50210000     -32.45720000     -73.29740000
H      -43.45090000     -31.44180000     -73.61910000
H      -42.45610000     -32.78610000     -73.23750000
C      -44.02290000     -32.53790000     -71.91650000
H      -44.17430000     -31.53210000     -71.44510000
H      -45.05880000     -32.94190000     -71.93920000
C      -46.37580000     -33.34700000     -69.41600000
H      -46.41230000     -32.78290000     -68.55000000
H      -46.12380000     -32.59390000     -70.19610000
C      -45.21770000     -34.31400000     -69.21700000
C      -45.19820000     -35.18740000     -68.15380000
C      -43.94190000     -34.30970000     -69.90550000
H      -45.99540000     -35.20400000     -67.35110000
C      -43.04730000     -35.26990000     -69.38320000
C      -43.28120000     -33.46170000     -71.01290000
C      -41.97140000     -33.91300000     -71.20070000
S      -43.74810000     -36.20070000     -68.05990000
S      -41.38060000     -35.15470000     -70.09850000
H      -41.13380000     -33.67410000     -71.88780000
