40
Properties=species:S:1:pos:R:3 #=T CELL(abcABC):=T 1.889726e+02=T 90.00000=T Traj:=T positionsangstrom=T Step:=T 0=T Bead:=T pbc="F F F"
C      -46.42790000     -29.99370000     -73.78590000
C      -46.08510000     -31.34360000     -73.85060000
C      -46.83640000     -32.27280000     -73.03720000
C      -47.91790000     -31.81390000     -72.26350000
C      -48.28100000     -30.40710000     -72.32040000
C      -47.53110000     -29.54490000     -73.04740000
H      -45.96500000     -29.36700000     -74.55000000
H      -46.70010000     -33.34610000     -73.15190000
H      -49.17270000     -30.07740000     -71.84870000
H      -47.78810000     -28.48870000     -73.11400000
C      -48.86030000     -32.66480000     -71.52770000
H      -48.80460000     -33.75690000     -71.72760000
H      -49.92840000     -32.55750000     -71.78080000
C      -45.16860000     -31.89100000     -74.83880000
H      -45.75650000     -32.43720000     -75.60190000
H      -44.69480000     -30.98820000     -75.34180000
S      -48.86830000     -32.61100000     -69.65350000
S      -44.02350000     -33.11590000     -74.15780000
C      -47.44770000     -33.79320000     -69.48500000
H      -47.63050000     -34.51560000     -68.72980000
H      -47.45570000     -34.31050000     -70.47750000
C      -43.27300000     -32.00080000     -72.85880000
H      -43.45610000     -30.88940000     -72.98710000
H      -42.15110000     -31.93620000     -73.01820000
C      -43.59340000     -32.37670000     -71.39800000
H      -43.05200000     -31.58900000     -70.78070000
H      -44.65570000     -32.18380000     -71.27570000
C      -46.06490000     -33.16080000     -69.18530000
H      -46.07440000     -32.64230000     -68.26810000
H      -45.76340000     -32.40850000     -69.86420000
C      -45.07280000     -34.32090000     -69.12410000
C      -45.19840000     -35.35130000     -68.24430000
C      -43.88870000     -34.43640000     -69.92760000
H      -46.12660000     -35.34080000     -67.62830000
C      -43.34690000     -35.74210000     -69.81800000
C      -43.25880000     -33.76760000     -71.05760000
C      -42.31860000     -34.50450000     -71.72640000
S      -44.05320000     -36.65150000     -68.53660000
S      -42.03980000     -36.07260000     -71.01380000
H      -41.64440000     -34.21990000     -72.55180000
