40
Properties=species:S:1:pos:R:3 #=T CELL(abcABC):=T 1.889726e+02=T 90.00000=T Traj:=T positionsangstrom=T Step:=T 0=T Bead:=T pbc="F F F"
C      -49.01990000     -33.30440000     -71.19610000
C      -48.42890000     -32.01360000     -71.22870000
C      -47.77610000     -31.55610000     -72.35220000
C      -47.80420000     -32.34370000     -73.52300000
C      -48.38370000     -33.59560000     -73.50570000
C      -48.99680000     -34.07650000     -72.37640000
H      -49.64700000     -33.69520000     -70.34060000
H      -47.32790000     -30.59250000     -72.29620000
H      -48.37800000     -34.21730000     -74.39980000
H      -49.47520000     -35.05100000     -72.34370000
C      -47.12260000     -31.89390000     -74.80060000
H      -46.79150000     -30.92550000     -74.71690000
H      -47.76920000     -31.86620000     -75.69630000
C      -48.44350000     -31.12870000     -70.02910000
H      -47.71760000     -30.22770000     -70.04960000
H      -49.49740000     -30.68710000     -69.91960000
S      -45.77150000     -33.04090000     -75.29840000
S      -47.88470000     -32.07740000     -68.55560000
C      -45.14560000     -33.81670000     -73.65950000
H      -45.98930000     -34.19150000     -73.11340000
H      -44.57630000     -34.73370000     -73.99060000
C      -46.14700000     -32.50070000     -68.89270000
H      -45.63840000     -32.64210000     -67.99150000
H      -45.78470000     -31.51690000     -69.36040000
C      -45.85890000     -33.69910000     -69.78060000
H      -46.54980000     -34.52190000     -69.48890000
H      -46.19630000     -33.47550000     -70.79230000
C      -44.18830000     -32.92680000     -72.84740000
H      -44.67160000     -32.14050000     -72.30490000
H      -43.59440000     -32.41160000     -73.68850000
C      -43.17630000     -33.68270000     -72.00720000
C      -41.87320000     -33.86580000     -72.40630000
C      -43.28240000     -34.09730000     -70.61460000
H      -41.47860000     -33.65900000     -73.41570000
C      -42.12910000     -34.68870000     -70.07840000
C      -44.34960000     -34.14840000     -69.61080000
C      -43.93150000     -34.64650000     -68.38730000
S      -40.79780000     -34.67610000     -71.23280000
S      -42.19910000     -35.10640000     -68.38710000
H      -44.54900000     -34.97360000     -67.59600000
