40
Properties=species:S:1:pos:R:3 #=T CELL(abcABC):=T 1.889726e+02=T 90.00000=T Traj:=T positionsangstrom=T Step:=T 0=T Bead:=T pbc="F F F"
C      -49.26650000     -33.20080000     -71.46320000
C      -48.59140000     -31.99420000     -71.37180000
C      -47.89990000     -31.57220000     -72.50280000
C      -47.79000000     -32.34350000     -73.63400000
C      -48.59460000     -33.45900000     -73.78280000
C      -49.36510000     -33.86620000     -72.71000000
H      -49.92760000     -33.56190000     -70.65420000
H      -47.27430000     -30.67540000     -72.46830000
H      -48.61130000     -34.11140000     -74.68890000
H      -50.05980000     -34.68550000     -72.96840000
C      -46.91590000     -31.94730000     -74.76020000
H      -46.56870000     -30.86440000     -74.64680000
H      -47.54450000     -32.04310000     -75.63960000
C      -48.40530000     -31.30070000     -70.03490000
H      -47.87070000     -30.36260000     -70.14310000
H      -49.34960000     -30.85710000     -69.71150000
S      -45.41590000     -33.15860000     -74.98780000
S      -47.64810000     -32.29080000     -68.60400000
C      -45.11630000     -33.63840000     -73.24090000
H      -46.07530000     -33.91910000     -72.83420000
H      -44.54420000     -34.50210000     -73.33530000
C      -45.94160000     -32.71110000     -69.23210000
H      -45.33760000     -32.77440000     -68.30490000
H      -45.61000000     -31.83150000     -69.83260000
C      -45.86880000     -34.05240000     -70.02890000
H      -46.65030000     -34.69500000     -69.62340000
H      -46.16100000     -33.91490000     -71.03480000
C      -44.31530000     -32.56620000     -72.44600000
H      -45.01240000     -32.06270000     -71.74910000
H      -43.91280000     -31.80980000     -73.05400000
C      -43.13330000     -33.27280000     -71.79010000
C      -41.82060000     -33.14470000     -72.03280000
C      -43.34460000     -34.18650000     -70.61680000
H      -41.25240000     -32.58550000     -72.76100000
C      -42.13240000     -34.70150000     -70.10530000
C      -44.48150000     -34.56800000     -69.83170000
C      -44.10380000     -35.32290000     -68.70190000
S      -40.78870000     -33.89620000     -70.86280000
S      -42.38360000     -35.62090000     -68.64780000
H      -44.86090000     -35.81290000     -68.08840000
