40
Properties=species:S:1:pos:R:3 #=T CELL(abcABC):=T 1.889726e+02=T 90.00000=T Traj:=T positionsangstrom=T Step:=T 0=T Bead:=T pbc="F F F"
C      -49.39070000     -33.00220000     -71.30760000
C      -48.51660000     -31.92720000     -71.18370000
C      -47.62660000     -31.65840000     -72.21200000
C      -47.63300000     -32.36930000     -73.44110000
C      -48.54150000     -33.44850000     -73.58980000
C      -49.41910000     -33.76210000     -72.50640000
H      -50.07350000     -33.18000000     -70.51370000
H      -47.12380000     -30.71140000     -72.20640000
H      -48.35340000     -34.17790000     -74.30840000
H      -50.07490000     -34.63010000     -72.47430000
C      -46.63170000     -31.87540000     -74.52420000
H      -45.99780000     -31.05490000     -74.09150000
H      -47.30360000     -31.47530000     -75.33140000
C      -48.49120000     -31.10250000     -69.96260000
H      -47.93820000     -30.18660000     -70.11010000
H      -49.40850000     -30.80630000     -69.51310000
S      -45.69050000     -33.29310000     -75.28360000
S      -47.83930000     -32.10340000     -68.53440000
C      -44.61750000     -33.97260000     -73.83700000
H      -45.06040000     -34.87550000     -73.35410000
H      -43.71290000     -34.30220000     -74.33170000
C      -46.01360000     -32.33920000     -68.96090000
H      -45.55690000     -32.23360000     -68.05620000
H      -45.68310000     -31.51360000     -69.64610000
C      -45.84100000     -33.78210000     -69.56310000
H      -46.50360000     -34.46790000     -69.04740000
H      -46.28950000     -33.75530000     -70.54420000
C      -44.38970000     -32.93270000     -72.72010000
H      -45.23870000     -32.73690000     -72.10260000
H      -44.20010000     -31.96370000     -73.17670000
C      -43.21170000     -33.50020000     -71.86080000
C      -41.94530000     -33.45910000     -72.26850000
C      -43.43420000     -34.16560000     -70.61090000
H      -41.53790000     -32.90030000     -73.09210000
C      -42.14360000     -34.64630000     -70.19610000
C      -44.43510000     -34.30440000     -69.56040000
C      -43.97900000     -34.96200000     -68.45210000
S      -40.83990000     -34.40430000     -71.31300000
S      -42.24070000     -35.43270000     -68.60920000
H      -44.50390000     -35.21060000     -67.56270000
