40
Properties=species:S:1:pos:R:3 #=T CELL(abcABC):=T 1.889726e+02=T 90.00000=T Traj:=T positionsangstrom=T Step:=T 0=T Bead:=T pbc="F F F"
C      -49.43070000     -33.38610000     -71.69010000
C      -48.62920000     -32.27550000     -71.44250000
C      -47.76510000     -31.89700000     -72.50930000
C      -47.73160000     -32.51410000     -73.74040000
C      -48.69730000     -33.55690000     -73.95480000
C      -49.46960000     -33.99460000     -72.93810000
H      -50.11210000     -33.71960000     -70.97160000
H      -47.07180000     -31.11880000     -72.32830000
H      -48.51950000     -34.11690000     -74.86790000
H      -50.11710000     -34.82960000     -72.99480000
C      -46.71750000     -32.03960000     -74.78400000
H      -46.19230000     -31.07280000     -74.53590000
H      -47.10720000     -31.91700000     -75.78350000
C      -48.73020000     -31.51860000     -70.18100000
H      -48.34400000     -30.48520000     -70.24210000
H      -49.82480000     -31.47570000     -69.87110000
S      -45.26890000     -33.21200000     -75.09170000
S      -47.97930000     -32.29950000     -68.57450000
C      -44.59040000     -33.70510000     -73.45210000
H      -45.28640000     -34.30940000     -72.85910000
H      -43.71020000     -34.35040000     -73.59940000
C      -46.21810000     -32.63880000     -69.05630000
H      -45.56110000     -32.48960000     -68.18230000
H      -45.94120000     -31.87780000     -69.75330000
C      -45.90950000     -33.97860000     -69.62980000
H      -46.25600000     -34.79240000     -68.94590000
H      -46.31550000     -34.12840000     -70.67420000
C      -44.24350000     -32.49960000     -72.44970000
H      -45.17770000     -32.29360000     -71.82830000
H      -43.92130000     -31.67050000     -73.09860000
C      -43.12830000     -32.92940000     -71.52530000
C      -41.78700000     -32.89200000     -71.89480000
C      -43.34770000     -33.91480000     -70.43320000
H      -41.40090000     -32.18030000     -72.57960000
C      -42.11980000     -34.44590000     -70.00430000
C      -44.47380000     -34.36700000     -69.60980000
C      -44.03520000     -35.32470000     -68.69600000
S      -40.78610000     -33.71590000     -70.77610000
S      -42.25930000     -35.68250000     -68.78520000
H      -44.68600000     -35.68550000     -67.95580000
