40
Properties=species:S:1:pos:R:3 #=T CELL(abcABC):=T 1.889726e+02=T 90.00000=T Traj:=T positionsangstrom=T Step:=T 0=T Bead:=T pbc="F F F"
C      -49.57420000     -33.40650000     -71.82160000
C      -48.74250000     -32.32700000     -71.42830000
C      -47.73930000     -31.98640000     -72.36360000
C      -47.57380000     -32.58440000     -73.62730000
C      -48.37110000     -33.67950000     -73.87310000
C      -49.39260000     -34.08980000     -72.96000000
H      -50.29360000     -33.80710000     -71.08180000
H      -46.99810000     -31.21210000     -72.06660000
H      -48.23610000     -34.15010000     -74.86230000
H      -50.06830000     -34.88100000     -73.11170000
C      -46.58620000     -32.05080000     -74.70800000
H      -46.30600000     -31.05400000     -74.31050000
H      -47.09930000     -31.83110000     -75.62220000
C      -48.74720000     -31.61220000     -70.15810000
H      -48.29260000     -30.63520000     -70.27620000
H      -49.71830000     -31.42250000     -69.77270000
S      -45.22090000     -33.17640000     -75.10190000
S      -48.01230000     -32.47830000     -68.77570000
C      -44.68640000     -33.70550000     -73.30050000
H      -45.56800000     -34.28600000     -72.97620000
H      -43.80710000     -34.29700000     -73.46270000
C      -46.14850000     -32.61960000     -69.11730000
H      -45.65930000     -32.65210000     -68.15910000
H      -45.87290000     -31.69880000     -69.71100000
C      -45.88360000     -33.91190000     -69.88310000
H      -46.63030000     -34.61920000     -69.52570000
H      -46.11490000     -33.92580000     -70.95200000
C      -44.28860000     -32.50610000     -72.40470000
H      -45.15410000     -32.02510000     -71.90030000
H      -43.89510000     -31.71100000     -72.97130000
C      -43.20910000     -32.90720000     -71.45020000
C      -41.89350000     -32.65540000     -71.78660000
C      -43.32130000     -33.89760000     -70.40450000
H      -41.47820000     -31.96800000     -72.57270000
C      -42.12530000     -34.38070000     -69.93250000
C      -44.45770000     -34.39460000     -69.72850000
C      -44.07120000     -35.26610000     -68.70360000
S      -40.80100000     -33.65380000     -70.81500000
S      -42.33180000     -35.58120000     -68.65720000
H      -44.57920000     -35.75110000     -67.89380000
