40
Properties=species:S:1:pos:R:3 #=T CELL(abcABC):=T 1.889726e+02=T 90.00000=T Traj:=T positionsangstrom=T Step:=T 0=T Bead:=T pbc="F F F"
C      -46.38750000     -35.69840000     -70.68200000
C      -47.39350000     -34.73770000     -70.42120000
C      -47.25140000     -33.81950000     -69.39110000
C      -46.16510000     -33.81770000     -68.51390000
C      -45.22390000     -34.79400000     -68.76490000
C      -45.30230000     -35.72010000     -69.82930000
H      -46.53490000     -36.37560000     -71.47800000
H      -48.03200000     -33.08390000     -69.29830000
H      -44.41200000     -34.72520000     -68.05840000
H      -44.50280000     -36.47940000     -69.93970000
C      -45.92940000     -32.82940000     -67.39350000
H      -45.02470000     -33.08960000     -66.84330000
H      -46.71220000     -32.75860000     -66.59780000
C      -48.65160000     -34.62870000     -71.29180000
H      -49.11690000     -35.61600000     -71.50160000
H      -49.41160000     -33.93340000     -70.93520000
S      -45.77110000     -31.10750000     -68.04560000
S      -48.22410000     -33.88300000     -72.93400000
C      -44.26520000     -31.42820000     -69.12150000
H      -43.50140000     -30.67530000     -69.00570000
H      -43.89340000     -32.42310000     -68.79830000
C      -47.55170000     -32.27370000     -72.54110000
H      -47.19500000     -32.47500000     -71.49390000
H      -48.37770000     -31.46370000     -72.52810000
C      -46.40000000     -31.84140000     -73.50370000
H      -46.68270000     -31.64390000     -74.52310000
H      -45.93600000     -30.90690000     -73.21330000
C      -44.80410000     -31.46070000     -70.56570000
H      -44.70190000     -30.48120000     -70.98920000
H      -45.87650000     -31.73590000     -70.66210000
C      -43.90440000     -32.44400000     -71.35550000
C      -42.59820000     -32.67270000     -70.89420000
C      -44.19520000     -33.06890000     -72.59140000
H      -42.16130000     -32.41010000     -69.91210000
C      -43.18850000     -33.91610000     -73.00080000
C      -45.16750000     -32.86660000     -73.62000000
C      -45.09910000     -33.71590000     -74.65440000
S      -41.75200000     -33.75650000     -72.02840000
S      -43.61580000     -34.67020000     -74.53420000
H      -45.74440000     -33.78030000     -75.46350000
