40
Properties=species:S:1:pos:R:3 #=T CELL(abcABC):=T 1.889726e+02=T 90.00000=T Traj:=T positionsangstrom=T Step:=T 0=T Bead:=T pbc="F F F"
C      -49.41410000     -34.04690000     -72.22790000
C      -48.83800000     -32.94060000     -71.58600000
C      -47.86220000     -32.25360000     -72.31330000
C      -47.59440000     -32.46230000     -73.72150000
C      -48.23200000     -33.53010000     -74.27480000
C      -49.04640000     -34.39910000     -73.52790000
H      -50.15730000     -34.62630000     -71.69630000
H      -47.44480000     -31.38450000     -71.88060000
H      -48.22690000     -33.85390000     -75.32530000
H      -49.33990000     -35.25740000     -73.99860000
C      -46.62410000     -31.55840000     -74.46740000
H      -46.17740000     -30.77250000     -73.87970000
H      -47.17320000     -31.06830000     -75.34210000
C      -49.07070000     -32.43880000     -70.17120000
H      -48.42450000     -31.62290000     -70.05460000
H      -50.18440000     -32.19270000     -70.02110000
S      -45.26510000     -32.70590000     -74.99620000
S      -48.61180000     -33.70030000     -68.85800000
C      -44.67070000     -33.39580000     -73.42190000
H      -45.44550000     -34.07280000     -73.00870000
H      -43.92000000     -34.14530000     -73.68050000
C      -46.68630000     -33.39670000     -68.93470000
H      -46.32170000     -33.61520000     -67.89180000
H      -46.50410000     -32.34570000     -68.98670000
C      -45.86930000     -34.16080000     -69.99870000
H      -46.33860000     -35.07470000     -70.33640000
H      -45.85360000     -33.55560000     -70.93170000
C      -44.14350000     -32.29550000     -72.46440000
H      -44.97370000     -31.93680000     -71.89070000
H      -43.81790000     -31.38040000     -72.97200000
C      -43.03210000     -32.87410000     -71.60270000
C      -41.70080000     -32.57390000     -71.80690000
C      -43.23420000     -33.51460000     -70.36560000
H      -41.39680000     -31.84160000     -72.59160000
C      -42.01520000     -33.90860000     -69.79850000
C      -44.32620000     -34.21660000     -69.65380000
C      -43.84590000     -34.90810000     -68.55630000
S      -40.62800000     -33.15880000     -70.56590000
S      -42.07680000     -34.91490000     -68.42740000
H      -44.43020000     -35.57220000     -67.92230000
