40
Properties=species:S:1:pos:R:3 #=T CELL(abcABC):=T 1.889726e+02=T 90.00000=T Traj:=T positionsangstrom=T Step:=T 0=T Bead:=T pbc="F F F"
C      -46.32670000     -31.65600000     -69.71130000
C      -45.11160000     -32.03840000     -69.18730000
C      -43.95380000     -31.83690000     -69.90690000
C      -43.98930000     -31.26700000     -71.21160000
C      -45.23380000     -30.88790000     -71.72360000
C      -46.37340000     -31.06240000     -70.99140000
H      -47.24040000     -32.02470000     -69.22990000
H      -42.97410000     -31.97310000     -69.49740000
H      -45.39340000     -30.38970000     -72.71640000
H      -47.39420000     -30.79970000     -71.40690000
C      -42.63030000     -31.21810000     -72.01100000
H      -41.82990000     -31.71810000     -71.37090000
H      -42.27740000     -30.20710000     -72.20600000
C      -44.97220000     -32.59310000     -67.83370000
H      -44.08690000     -32.21140000     -67.41680000
H      -45.77940000     -32.43300000     -67.16330000
S      -42.68240000     -31.84610000     -73.70520000
S      -44.72210000     -34.45110000     -67.71700000
C      -42.67650000     -33.63570000     -73.83730000
H      -42.73960000     -33.92670000     -74.94130000
H      -41.69830000     -33.95390000     -73.50000000
C      -43.95090000     -35.12910000     -69.22510000
H      -43.04290000     -35.66280000     -68.87550000
H      -43.58760000     -34.32490000     -69.91830000
C      -44.79600000     -36.01010000     -70.03380000
H      -44.11340000     -36.43530000     -70.69190000
H      -45.35120000     -36.72080000     -69.34570000
C      -43.65550000     -34.41710000     -72.95870000
H      -43.32630000     -34.14990000     -71.95820000
H      -43.33090000     -35.46570000     -73.10600000
C      -45.15190000     -34.17670000     -73.02160000
C      -45.67060000     -33.35970000     -74.03650000
C      -46.12590000     -34.61360000     -72.01060000
H      -45.04110000     -32.80910000     -74.70170000
C      -47.43420000     -34.22860000     -72.31430000
C      -45.97410000     -35.32760000     -70.75880000
C      -47.26160000     -35.47740000     -70.21410000
S      -47.43300000     -33.24130000     -73.80730000
S      -48.57470000     -34.70750000     -71.05500000
H      -47.38710000     -35.83420000     -69.23110000
