40
Properties=species:S:1:pos:R:3 #=T CELL(abcABC):=T 1.889726e+02=T 90.00000=T Traj:=T positionsangstrom=T Step:=T 0=T Bead:=T pbc="F F F"
C      -49.05980000     -34.74800000     -72.31170000
C      -48.81280000     -33.54950000     -71.61300000
C      -48.25690000     -32.45060000     -72.35940000
C      -47.74440000     -32.58510000     -73.63620000
C      -47.87410000     -33.86010000     -74.28070000
C      -48.56700000     -34.92080000     -73.63950000
H      -49.46700000     -35.54750000     -71.65840000
H      -48.28370000     -31.45710000     -71.90510000
H      -47.52410000     -34.06710000     -75.34780000
H      -48.61370000     -35.91410000     -74.06780000
C      -47.18490000     -31.49210000     -74.45140000
H      -47.35560000     -30.51560000     -73.94300000
H      -47.51880000     -31.50870000     -75.47000000
C      -49.35670000     -33.25470000     -70.20390000
H      -49.44140000     -32.17770000     -70.11690000
H      -50.34590000     -33.72720000     -70.04470000
S      -45.32010000     -31.62110000     -74.75120000
S      -48.23370000     -33.94060000     -68.84540000
C      -44.59540000     -32.69400000     -73.41480000
H      -45.21170000     -33.54690000     -73.20410000
H      -43.69720000     -33.12580000     -73.79900000
C      -46.54530000     -33.45430000     -69.31280000
H      -45.99860000     -33.57180000     -68.31590000
H      -46.46020000     -32.39590000     -69.55110000
C      -45.76870000     -34.35970000     -70.28680000
H      -46.23420000     -35.27430000     -70.38750000
H      -45.92720000     -33.94660000     -71.31940000
C      -44.28020000     -31.87570000     -72.12450000
H      -45.19390000     -31.63050000     -71.54290000
H      -44.12100000     -30.88260000     -72.45280000
C      -43.22630000     -32.41700000     -71.21580000
C      -41.94270000     -31.87050000     -71.33960000
C      -43.27020000     -33.60410000     -70.37260000
H      -41.76920000     -30.85170000     -71.75220000
C      -41.98810000     -33.90390000     -69.88680000
C      -44.33880000     -34.53270000     -69.87590000
C      -43.76020000     -35.46870000     -69.06250000
S      -40.81380000     -32.71440000     -70.26400000
S      -42.03700000     -35.32630000     -68.76800000
H      -44.23420000     -36.27590000     -68.60590000
