40
Properties=species:S:1:pos:R:3 #=T CELL(abcABC):=T 1.889726e+02=T 90.00000=T Traj:=T positionsangstrom=T Step:=T 0=T Bead:=T pbc="F F F"
C      -48.93600000     -34.62980000     -72.15590000
C      -48.87190000     -33.39260000     -71.48700000
C      -48.29490000     -32.29220000     -72.16870000
C      -47.69730000     -32.43940000     -73.48830000
C      -47.71940000     -33.74210000     -73.99730000
C      -48.30970000     -34.84220000     -73.39320000
H      -49.36450000     -35.40140000     -71.58010000
H      -48.26800000     -31.28330000     -71.62290000
H      -47.13520000     -33.99630000     -74.82220000
H      -48.07890000     -35.84420000     -73.82380000
C      -46.84500000     -31.38180000     -74.05430000
H      -46.40650000     -30.76890000     -73.26010000
H      -47.43970000     -30.76290000     -74.77980000
C      -49.47390000     -33.25910000     -70.11210000
H      -49.69270000     -32.23010000     -69.69560000
H      -50.37870000     -33.84890000     -70.03910000
S      -45.30370000     -31.96290000     -75.00470000
S      -48.26040000     -33.96570000     -68.82210000
C      -44.38720000     -32.79140000     -73.66710000
H      -44.69130000     -33.81070000     -73.40520000
H      -43.46370000     -32.99800000     -74.09260000
C      -46.68630000     -33.30560000     -69.62900000
H      -46.06340000     -32.82810000     -68.82490000
H      -46.93270000     -32.40140000     -70.25580000
C      -45.82060000     -34.32250000     -70.42560000
H      -46.24940000     -35.35530000     -70.37630000
H      -45.81830000     -33.99770000     -71.42960000
C      -44.26910000     -31.99740000     -72.29690000
H      -45.21620000     -32.12310000     -71.72420000
H      -43.97790000     -30.91420000     -72.48260000
C      -43.18400000     -32.60840000     -71.44240000
C      -41.88970000     -32.10380000     -71.52600000
C      -43.29760000     -33.62900000     -70.46800000
H      -41.54080000     -31.50190000     -72.31430000
C      -42.05690000     -33.88710000     -69.81020000
C      -44.39380000     -34.38810000     -69.90570000
C      -44.02330000     -35.20810000     -68.89620000
S      -40.79240000     -32.96900000     -70.50310000
S      -42.26950000     -35.02250000     -68.49040000
H      -44.59230000     -36.02600000     -68.38030000
