40
Properties=species:S:1:pos:R:3 #=T CELL(abcABC):=T 1.889726e+02=T 90.00000=T Traj:=T positionsangstrom=T Step:=T 0=T Bead:=T pbc="F F F"
C      -49.12980000     -34.58530000     -72.16090000
C      -48.86640000     -33.33240000     -71.52090000
C      -48.22500000     -32.34670000     -72.28540000
C      -47.65850000     -32.58230000     -73.52650000
C      -48.03310000     -33.79560000     -74.13530000
C      -48.77000000     -34.79710000     -73.45240000
H      -49.76110000     -35.38180000     -71.70920000
H      -47.97390000     -31.48560000     -71.82780000
H      -47.58740000     -33.95630000     -75.16780000
H      -48.86290000     -35.75920000     -73.88290000
C      -46.91540000     -31.48920000     -74.27730000
H      -46.83820000     -30.49480000     -73.70520000
H      -47.52900000     -31.16310000     -75.12690000
C      -49.39150000     -32.99790000     -70.20370000
H      -49.26580000     -31.91190000     -70.09900000
H      -50.51440000     -33.17580000     -70.06270000
S      -45.28840000     -32.00460000     -75.16480000
S      -48.46700000     -33.87410000     -68.81780000
C      -44.44090000     -32.97280000     -73.77990000
H      -45.17170000     -33.72200000     -73.52450000
H      -43.50450000     -33.33130000     -74.31070000
C      -46.67980000     -33.35460000     -68.99010000
H      -46.17180000     -33.44480000     -68.00690000
H      -46.68010000     -32.26550000     -69.16510000
C      -45.87450000     -34.11600000     -70.13180000
H      -46.32470000     -35.08410000     -70.16200000
H      -46.07580000     -33.66540000     -71.10950000
C      -43.97480000     -32.14470000     -72.49800000
H      -44.95400000     -32.01300000     -71.95310000
H      -43.69260000     -31.08640000     -72.80600000
C      -42.96650000     -32.67980000     -71.57570000
C      -41.60370000     -32.36170000     -71.69790000
C      -43.23460000     -33.62190000     -70.46490000
H      -41.18600000     -31.45340000     -72.21180000
C      -42.07310000     -33.85420000     -69.77020000
C      -44.35180000     -34.22020000     -69.79350000
C      -43.93820000     -35.06650000     -68.79510000
S      -40.62360000     -33.08630000     -70.36930000
S      -42.21390000     -34.95530000     -68.41630000
H      -44.61610000     -35.52100000     -68.12150000
