40
Properties=species:S:1:pos:R:3 #=T CELL(abcABC):=T 1.889726e+02=T 90.00000=T Traj:=T positionsangstrom=T Step:=T 0=T Bead:=T pbc="F F F"
C      -45.39380000     -30.65600000     -68.10080000
C      -44.78880000     -30.61480000     -69.38160000
C      -43.64070000     -31.35160000     -69.60130000
C      -43.16110000     -32.31610000     -68.67410000
C      -43.87810000     -32.45040000     -67.47760000
C      -44.91680000     -31.57470000     -67.16800000
H      -46.36960000     -30.12760000     -67.91910000
H      -43.07160000     -31.21300000     -70.50820000
H      -43.52540000     -33.19060000     -66.78390000
H      -45.23940000     -31.66170000     -66.18780000
C      -41.98770000     -33.22820000     -68.92340000
H      -42.04960000     -34.19550000     -68.41180000
H      -41.08390000     -32.78320000     -68.36990000
C      -45.32610000     -29.77120000     -70.48800000
H      -45.31370000     -28.68170000     -70.19770000
H      -44.66760000     -30.01260000     -71.36930000
S      -41.38130000     -33.52230000     -70.64620000
S      -47.04980000     -30.07960000     -70.95500000
C      -42.60550000     -34.78660000     -71.38540000
H      -42.26800000     -34.93250000     -72.43130000
H      -42.59890000     -35.67590000     -70.76880000
C      -47.04500000     -31.52730000     -72.08790000
H      -46.24380000     -31.52020000     -72.82340000
H      -47.99570000     -31.56450000     -72.59790000
C      -47.04090000     -32.83790000     -71.31750000
H      -46.02860000     -32.88680000     -70.92240000
H      -47.69600000     -32.84030000     -70.41000000
C      -44.04040000     -34.24220000     -71.49190000
H      -43.93780000     -33.11910000     -71.70260000
H      -44.43690000     -34.26750000     -70.47460000
C      -44.93450000     -34.97600000     -72.52150000
C      -44.44980000     -36.01830000     -73.31620000
C      -46.30930000     -34.76950000     -72.77000000
H      -43.46790000     -36.52050000     -73.33350000
C      -46.87600000     -35.78270000     -73.53200000
C      -47.33450000     -33.93120000     -72.26150000
C      -48.57790000     -34.19590000     -72.70840000
S      -45.71060000     -36.89820000     -74.14280000
S      -48.61030000     -35.59280000     -73.75430000
H      -49.46490000     -33.62140000     -72.52980000
