40
Properties=species:S:1:pos:R:3 #=T CELL(abcABC):=T 1.889726e+02=T 90.00000=T Traj:=T positionsangstrom=T Step:=T 0=T Bead:=T pbc="F F F"
C      -45.43040000     -30.81350000     -68.14080000
C      -44.73600000     -30.69240000     -69.33800000
C      -43.57690000     -31.50610000     -69.63250000
C      -43.12660000     -32.43680000     -68.72830000
C      -43.81460000     -32.49660000     -67.43680000
C      -44.97030000     -31.72680000     -67.17880000
H      -46.22300000     -30.05600000     -67.81630000
H      -43.07940000     -31.56500000     -70.58830000
H      -43.49400000     -33.25670000     -66.76410000
H      -45.46220000     -31.89190000     -66.30140000
C      -41.89960000     -33.30750000     -68.96660000
H      -42.01220000     -34.22210000     -68.46080000
H      -41.00930000     -32.79920000     -68.55310000
C      -45.22660000     -29.67040000     -70.37230000
H      -45.09130000     -28.68640000     -69.88620000
H      -44.59250000     -29.66440000     -71.19130000
S      -41.45700000     -33.56070000     -70.75470000
S      -46.94560000     -29.73150000     -70.93380000
C      -42.66650000     -34.72850000     -71.44250000
H      -42.20530000     -35.00100000     -72.42100000
H      -42.63800000     -35.63520000     -70.98220000
C      -47.02690000     -31.24710000     -72.01280000
H      -46.15400000     -31.18680000     -72.75790000
H      -47.94300000     -31.07690000     -72.56530000
C      -47.05560000     -32.62080000     -71.25360000
H      -46.18050000     -32.69560000     -70.70060000
H      -47.86550000     -32.55630000     -70.53170000
C      -44.06670000     -34.28720000     -71.66120000
H      -44.14000000     -33.28080000     -72.19090000
H      -44.65390000     -34.23040000     -70.76010000
C      -44.89630000     -35.16140000     -72.56660000
C      -44.47520000     -36.25980000     -73.33430000
C      -46.32220000     -34.84230000     -72.69240000
H      -43.45460000     -36.52340000     -73.28250000
C      -46.90240000     -35.82040000     -73.51910000
C      -47.27720000     -33.88580000     -72.10630000
C      -48.53660000     -34.27390000     -72.47520000
S      -45.87830000     -36.86100000     -74.38430000
S      -48.57890000     -35.67640000     -73.55830000
H      -49.40740000     -33.96270000     -71.91940000
