40
Properties=species:S:1:pos:R:3 #=T CELL(abcABC):=T 1.889726e+02=T 90.00000=T Traj:=T positionsangstrom=T Step:=T 0=T Bead:=T pbc="F F F"
C      -48.66110000     -34.92490000     -73.17560000
C      -48.80110000     -33.93910000     -72.21820000
C      -48.16350000     -32.69670000     -72.34400000
C      -47.57090000     -32.27700000     -73.52220000
C      -47.42490000     -33.25030000     -74.50780000
C      -47.97180000     -34.54650000     -74.32940000
H      -49.14340000     -35.84600000     -73.04010000
H      -48.38530000     -31.96160000     -71.58910000
H      -47.04780000     -33.05880000     -75.52250000
H      -47.75020000     -35.35930000     -75.06800000
C      -46.96690000     -30.89010000     -73.61290000
H      -47.07060000     -30.29030000     -72.63730000
H      -47.48190000     -30.34200000     -74.40500000
C      -49.47540000     -34.18970000     -70.87700000
H      -49.72350000     -33.19050000     -70.44130000
H      -50.34410000     -34.89210000     -70.92310000
S      -45.26760000     -30.80780000     -74.23260000
S      -48.46100000     -35.12040000     -69.64510000
C      -44.26430000     -31.97670000     -73.10790000
H      -44.65490000     -32.99260000     -73.14650000
H      -43.22970000     -31.92210000     -73.46050000
C      -46.77090000     -34.37500000     -69.34660000
H      -46.32380000     -35.01420000     -68.58480000
H      -46.84160000     -33.38370000     -68.94220000
C      -45.78580000     -34.42820000     -70.59000000
H      -46.02340000     -35.23180000     -71.18300000
H      -45.94820000     -33.50550000     -71.15100000
C      -44.31530000     -31.46320000     -71.62440000
H      -45.32870000     -31.41080000     -71.21150000
H      -44.04540000     -30.39390000     -71.60740000
C      -43.34410000     -32.14780000     -70.73710000
C      -42.11640000     -31.58130000     -70.57860000
C      -43.38410000     -33.50030000     -70.18060000
H      -41.92060000     -30.65930000     -70.98040000
C      -42.18840000     -33.80620000     -69.54460000
C      -44.31460000     -34.59970000     -70.14170000
C      -43.79780000     -35.72620000     -69.60620000
S      -41.05120000     -32.48750000     -69.53270000
S      -42.15080000     -35.46980000     -68.98200000
H      -44.35920000     -36.56870000     -69.27350000
