40
Properties=species:S:1:pos:R:3 #=T CELL(abcABC):=T 1.889726e+02=T 90.00000=T Traj:=T positionsangstrom=T Step:=T 0=T Bead:=T pbc="F F F"
C      -45.47940000     -31.10180000     -68.21300000
C      -44.65350000     -30.70500000     -69.30670000
C      -43.46960000     -31.45070000     -69.67920000
C      -43.21850000     -32.58010000     -68.89240000
C      -44.01030000     -32.94070000     -67.76830000
C      -45.10810000     -32.18450000     -67.41950000
H      -46.28800000     -30.54840000     -67.97340000
H      -42.84480000     -31.10540000     -70.53090000
H      -43.81150000     -33.99710000     -67.34560000
H      -45.73920000     -32.36920000     -66.47950000
C      -42.05200000     -33.47610000     -69.19600000
H      -42.20000000     -34.50330000     -68.81480000
H      -41.26280000     -33.03740000     -68.55490000
C      -45.20680000     -29.60290000     -70.28240000
H      -45.19470000     -28.65210000     -69.83930000
H      -44.57570000     -29.66530000     -71.15970000
S      -41.30270000     -33.59150000     -70.87900000
S      -46.88140000     -29.85760000     -71.01180000
C      -42.51340000     -34.70100000     -71.71380000
H      -42.02990000     -35.06060000     -72.58460000
H      -42.65390000     -35.55670000     -71.06150000
C      -46.56940000     -31.41150000     -71.83800000
H      -45.52020000     -31.44560000     -72.20070000
H      -47.24350000     -31.50200000     -72.72670000
C      -46.89700000     -32.65480000     -70.99590000
H      -46.03830000     -32.87970000     -70.31110000
H      -47.80010000     -32.54300000     -70.40810000
C      -43.82790000     -34.08820000     -72.07130000
H      -43.56410000     -33.39680000     -72.95430000
H      -44.16810000     -33.35540000     -71.28140000
C      -44.92850000     -35.02480000     -72.52620000
C      -44.60230000     -36.11490000     -73.29330000
C      -46.40200000     -34.80610000     -72.54520000
H      -43.60900000     -36.41160000     -73.53080000
C      -47.08480000     -35.65420000     -73.43090000
C      -47.25570000     -33.83260000     -71.85830000
C      -48.56230000     -34.09560000     -72.10560000
S      -46.02510000     -36.85990000     -74.14160000
S      -48.76470000     -35.24230000     -73.43140000
H      -49.39650000     -33.39000000     -71.93390000
