40
Properties=species:S:1:pos:R:3 #=T CELL(abcABC):=T 1.889726e+02=T 90.00000=T Traj:=T positionsangstrom=T Step:=T 0=T Bead:=T pbc="F F F"
C      -48.15500000     -35.24410000     -73.45900000
C      -48.49280000     -34.52420000     -72.30360000
C      -48.14730000     -33.16590000     -72.30610000
C      -47.57090000     -32.51560000     -73.40450000
C      -47.23920000     -33.34710000     -74.51980000
C      -47.57470000     -34.68280000     -74.58480000
H      -48.32640000     -36.31780000     -73.39890000
H      -48.46470000     -32.50170000     -71.46850000
H      -46.64640000     -32.93050000     -75.34130000
H      -47.37630000     -35.34640000     -75.42140000
C      -47.58420000     -31.00090000     -73.49880000
H      -47.98930000     -30.48580000     -72.54080000
H      -48.14360000     -30.59750000     -74.35070000
C      -48.83750000     -35.29440000     -71.08630000
H      -48.99650000     -34.56750000     -70.27660000
H      -49.77830000     -35.84120000     -71.32070000
S      -45.83940000     -30.41700000     -73.88590000
S      -47.55380000     -36.60260000     -70.73720000
C      -44.75620000     -31.39270000     -72.82560000
H      -44.85630000     -32.52010000     -73.16270000
H      -43.68600000     -31.00210000     -72.86460000
C      -46.18150000     -35.66390000     -69.97700000
H      -45.70300000     -36.31860000     -69.28410000
H      -46.62270000     -34.89510000     -69.32710000
C      -45.16560000     -35.10760000     -71.11720000
H      -44.88570000     -35.87610000     -71.80380000
H      -45.49790000     -34.22240000     -71.68520000
C      -45.12960000     -31.32240000     -71.31210000
H      -46.10470000     -31.80800000     -71.15940000
H      -45.26940000     -30.36130000     -71.05280000
C      -44.04360000     -31.82590000     -70.40990000
C      -43.17240000     -30.83970000     -69.97210000
C      -43.58370000     -33.15440000     -70.04540000
H      -43.21340000     -29.73940000     -70.07860000
C      -42.48730000     -33.06020000     -69.10380000
C      -43.88540000     -34.59110000     -70.36880000
C      -42.95940000     -35.43810000     -69.77680000
S      -41.92660000     -31.40710000     -68.93380000
S      -41.77930000     -34.58290000     -68.79010000
H      -42.88380000     -36.48670000     -69.75530000
