40
Properties=species:S:1:pos:R:3 #=T CELL(abcABC):=T 1.889726e+02=T 90.00000=T Traj:=T positionsangstrom=T Step:=T 0=T Bead:=T pbc="F F F"
C      -47.24290000     -36.88410000     -73.20190000
C      -47.16610000     -36.12900000     -71.99230000
C      -45.93150000     -36.07110000     -71.30770000
C      -44.80230000     -36.73590000     -71.76880000
C      -44.86960000     -37.42830000     -72.99240000
C      -46.06170000     -37.46850000     -73.71790000
H      -48.15240000     -37.04410000     -73.78190000
H      -45.80880000     -35.49850000     -70.32680000
H      -43.92610000     -37.83880000     -73.38310000
H      -46.14600000     -37.92550000     -74.69790000
C      -43.57550000     -36.74520000     -70.85310000
H      -43.20880000     -37.79490000     -70.81560000
H      -43.85310000     -36.41510000     -69.88380000
C      -48.52490000     -35.54880000     -71.51370000
H      -49.13720000     -35.65740000     -72.42290000
H      -48.94910000     -36.12590000     -70.65990000
S      -42.18520000     -35.54910000     -71.52600000
S      -48.47390000     -33.83560000     -71.03360000
C      -43.12030000     -33.94690000     -71.71770000
H      -42.76420000     -33.52000000     -72.69930000
H      -44.14900000     -34.24840000     -71.81700000
C      -47.48330000     -33.92230000     -69.54780000
H      -47.36800000     -34.95820000     -69.21740000
H      -47.97180000     -33.36080000     -68.68660000
C      -46.03750000     -33.33290000     -69.70240000
H      -45.51910000     -33.33990000     -68.70860000
H      -45.40470000     -33.89310000     -70.39720000
C      -42.77150000     -32.99620000     -70.53410000
H      -41.65710000     -32.80410000     -70.45580000
H      -43.09430000     -33.46100000     -69.60200000
C      -43.39320000     -31.64320000     -70.71080000
C      -42.62120000     -30.52310000     -71.02530000
C      -44.78630000     -31.26550000     -70.70100000
H      -41.50070000     -30.48870000     -71.18330000
C      -45.01390000     -29.98160000     -71.30650000
C      -46.01500000     -31.85900000     -70.27510000
C      -47.11520000     -31.05360000     -70.48430000
S      -43.47040000     -29.13920000     -71.58070000
S      -46.68600000     -29.48220000     -71.20740000
H      -48.10850000     -31.20650000     -70.15370000
