40
Properties=species:S:1:pos:R:3 #=T CELL(abcABC):=T 1.889726e+02=T 90.00000=T Traj:=T positionsangstrom=T Step:=T 0=T Bead:=T pbc="F F F"
C      -46.40990000     -35.96950000     -74.78100000
C      -45.93340000     -34.63260000     -74.67080000
C      -46.57470000     -33.68020000     -73.83150000
C      -47.78080000     -33.99530000     -73.17350000
C      -48.28350000     -35.32990000     -73.40670000
C      -47.65980000     -36.26850000     -74.17810000
H      -45.93900000     -36.67950000     -75.44010000
H      -46.24200000     -32.65790000     -73.85490000
H      -49.19860000     -35.62660000     -72.94750000
H      -48.13010000     -37.25510000     -74.26120000
C      -48.57190000     -33.06230000     -72.28970000
H      -49.59180000     -33.23490000     -72.48140000
H      -48.44150000     -32.04070000     -72.69400000
C      -44.70200000     -34.13880000     -75.33690000
H      -44.59370000     -34.52380000     -76.31830000
H      -44.73210000     -32.99070000     -75.41360000
S      -48.35970000     -33.01770000     -70.52210000
S      -43.33560000     -34.87750000     -74.19350000
C      -47.45840000     -34.64650000     -70.03980000
H      -47.87320000     -34.86950000     -69.06230000
H      -47.82650000     -35.47040000     -70.67020000
C      -43.62210000     -33.77320000     -72.73110000
H      -44.72450000     -33.73260000     -72.65070000
H      -43.26160000     -32.75240000     -73.01140000
C      -42.90770000     -34.11410000     -71.48430000
H      -43.29320000     -34.99580000     -71.03630000
H      -41.87690000     -34.32180000     -71.68710000
C      -45.95510000     -34.40970000     -70.08580000
H      -45.60700000     -34.27320000     -71.15250000
H      -45.47200000     -35.31040000     -69.78730000
C      -45.44700000     -33.28770000     -69.17100000
C      -45.93430000     -32.72520000     -68.04670000
C      -44.14940000     -32.67110000     -69.52290000
H      -46.86970000     -32.95090000     -67.52400000
C      -43.82800000     -31.59720000     -68.70020000
C      -43.05480000     -32.92220000     -70.48500000
C      -42.11130000     -31.89450000     -70.39490000
S      -45.03040000     -31.37620000     -67.42590000
S      -42.38580000     -30.70790000     -69.14180000
H      -41.35150000     -31.74540000     -71.23150000
