40
Properties=species:S:1:pos:R:3 #=T CELL(abcABC):=T 1.889726e+02=T 90.00000=T Traj:=T positionsangstrom=T Step:=T 0=T Bead:=T pbc="F F F"
C      -47.05440000     -33.46550000     -69.36090000
C      -45.76560000     -33.70880000     -68.74500000
C      -44.76580000     -32.73660000     -68.78370000
C      -45.04350000     -31.49860000     -69.34240000
C      -46.34680000     -31.19800000     -69.84960000
C      -47.31950000     -32.15460000     -69.80060000
H      -47.76870000     -34.24370000     -69.43890000
H      -43.75590000     -32.88260000     -68.46310000
H      -46.42770000     -30.18660000     -70.35830000
H      -48.30510000     -31.84840000     -70.05020000
C      -43.98080000     -30.46870000     -69.57960000
H      -42.95520000     -30.64340000     -69.20000000
H      -44.22210000     -29.53180000     -68.99800000
C      -45.45040000     -35.05460000     -68.14550000
H      -44.49830000     -35.26300000     -67.60540000
H      -46.22010000     -35.35000000     -67.41310000
S      -43.62620000     -29.93670000     -71.28460000
S      -45.44370000     -36.40790000     -69.54570000
C      -42.43260000     -31.24060000     -71.96710000
H      -42.27240000     -30.89240000     -72.99370000
H      -41.58170000     -31.36350000     -71.21890000
C      -43.69550000     -36.05220000     -70.28290000
H      -42.98160000     -36.65580000     -69.85250000
H      -43.46150000     -35.02270000     -69.99480000
C      -43.78710000     -36.07310000     -71.81030000
H      -42.97260000     -35.51080000     -72.11650000
H      -43.70310000     -37.11400000     -72.14280000
C      -42.98320000     -32.66330000     -72.24910000
H      -42.91190000     -33.30950000     -71.36370000
H      -42.28750000     -33.01020000     -73.01660000
C      -44.49700000     -32.71030000     -72.70710000
C      -45.21300000     -31.69000000     -73.30470000
C      -45.29180000     -33.94720000     -72.73380000
H      -44.78800000     -30.74770000     -73.59430000
C      -46.49290000     -33.83110000     -73.35080000
C      -45.08670000     -35.39290000     -72.35860000
C      -46.19570000     -36.15090000     -72.51130000
S      -46.76620000     -32.21410000     -73.83750000
S      -47.50780000     -35.28090000     -73.37690000
H      -46.29670000     -37.26350000     -72.36760000
