40
Properties=species:S:1:pos:R:3 #=T CELL(abcABC):=T 1.889726e+02=T 90.00000=T Traj:=T positionsangstrom=T Step:=T 0=T Bead:=T pbc="F F F"
C      -47.76020000     -35.27590000     -73.91420000
C      -48.22680000     -34.75070000     -72.67890000
C      -48.20590000     -33.35830000     -72.48630000
C      -47.83070000     -32.48030000     -73.44550000
C      -47.50450000     -33.00410000     -74.69220000
C      -47.37800000     -34.37570000     -74.92880000
H      -47.66540000     -36.32990000     -74.02510000
H      -48.49110000     -32.92680000     -71.54770000
H      -47.12590000     -32.31470000     -75.47380000
H      -47.02050000     -34.67780000     -75.93370000
C      -47.68780000     -30.99590000     -73.19130000
H      -48.08510000     -30.80820000     -72.13900000
H      -48.46480000     -30.39330000     -73.76580000
C      -48.71980000     -35.63800000     -71.55200000
H      -49.15690000     -34.99470000     -70.75480000
H      -49.52170000     -36.38360000     -71.75920000
S      -46.01860000     -30.34810000     -73.60230000
S      -47.43020000     -36.71620000     -70.73530000
C      -44.82780000     -31.47090000     -72.86880000
H      -44.80790000     -32.49510000     -73.32410000
H      -43.87490000     -30.90400000     -73.04080000
C      -46.17640000     -35.56250000     -70.01110000
H      -45.78660000     -36.16360000     -69.21740000
H      -46.76830000     -34.70820000     -69.64260000
C      -45.04650000     -35.15610000     -70.93290000
H      -44.66920000     -35.95600000     -71.56680000
H      -45.49780000     -34.40710000     -71.54480000
C      -45.19090000     -31.50650000     -71.36690000
H      -46.00610000     -32.11710000     -71.21560000
H      -45.49860000     -30.50580000     -71.08810000
C      -44.05140000     -31.88980000     -70.43120000
C      -43.26680000     -30.84860000     -70.05990000
C      -43.47260000     -33.18920000     -70.04680000
H      -43.41720000     -29.83000000     -70.21670000
C      -42.37720000     -32.99280000     -69.20150000
C      -43.82580000     -34.63600000     -70.17430000
C      -43.00610000     -35.39670000     -69.43100000
S      -42.00810000     -31.31080000     -68.92850000
S      -41.78470000     -34.48160000     -68.53800000
H      -42.95430000     -36.51080000     -69.31790000
