40
Properties=species:S:1:pos:R:3 #=T CELL(abcABC):=T 1.889726e+02=T 90.00000=T Traj:=T positionsangstrom=T Step:=T 0=T Bead:=T pbc="F F F"
C      -47.92440000     -35.50520000     -74.19340000
C      -48.27420000     -35.12150000     -72.91930000
C      -48.15990000     -33.77010000     -72.60860000
C      -47.81090000     -32.83380000     -73.62010000
C      -47.26960000     -33.28280000     -74.85190000
C      -47.28060000     -34.66910000     -75.08020000
H      -47.96830000     -36.58340000     -74.46170000
H      -48.43860000     -33.40490000     -71.63130000
H      -46.83030000     -32.54370000     -75.49630000
H      -46.91380000     -35.00840000     -76.02210000
C      -48.00570000     -31.34620000     -73.39940000
H      -48.51640000     -31.29180000     -72.40650000
H      -48.74770000     -30.92250000     -74.09790000
C      -48.61070000     -36.09600000     -71.78670000
H      -49.08500000     -35.53150000     -70.98570000
H      -49.36680000     -36.91180000     -72.02420000
S      -46.47250000     -30.36350000     -73.31400000
S      -47.13150000     -36.77790000     -70.93170000
C      -45.27510000     -31.50250000     -72.54200000
H      -45.53610000     -32.49850000     -72.88930000
H      -44.26440000     -31.21470000     -72.86740000
C      -46.26470000     -35.27860000     -70.26370000
H      -46.12630000     -35.49990000     -69.17190000
H      -46.91310000     -34.42970000     -70.40280000
C      -44.79540000     -35.05480000     -70.92210000
H      -44.41490000     -36.04490000     -71.27900000
H      -44.90640000     -34.49390000     -71.84240000
C      -45.46080000     -31.50180000     -70.99580000
H      -46.16630000     -32.31950000     -70.79940000
H      -45.89760000     -30.56070000     -70.72140000
C      -44.14610000     -31.71480000     -70.18970000
C      -43.38050000     -30.63400000     -69.83610000
C      -43.49700000     -32.98270000     -69.81860000
H      -43.62710000     -29.58660000     -70.07910000
C      -42.32610000     -32.71460000     -69.13700000
C      -43.76830000     -34.36540000     -69.97480000
C      -42.82440000     -35.15030000     -69.31970000
S      -41.79680000     -31.04180000     -69.02880000
S      -41.59090000     -34.21770000     -68.48380000
H      -42.85340000     -36.21210000     -69.30920000
