40
Properties=species:S:1:pos:R:3 #=T CELL(abcABC):=T 1.889726e+02=T 90.00000=T Traj:=T positionsangstrom=T Step:=T 0=T Bead:=T pbc="F F F"
C      -46.54860000     -35.80640000     -74.85030000
C      -46.05030000     -34.49480000     -74.60240000
C      -46.82740000     -33.62890000     -73.80860000
C      -47.96850000     -34.10100000     -73.06150000
C      -48.37600000     -35.38480000     -73.32830000
C      -47.71960000     -36.15050000     -74.22310000
H      -45.99000000     -36.52210000     -75.41620000
H      -46.42150000     -32.63940000     -73.56160000
H      -49.25240000     -35.74760000     -72.77320000
H      -48.24400000     -37.12540000     -74.44360000
C      -48.79550000     -33.15010000     -72.26020000
H      -49.81680000     -33.40700000     -72.47070000
H      -48.58820000     -32.08550000     -72.49850000
C      -44.69380000     -34.09810000     -75.17680000
H      -44.56200000     -34.52930000     -76.17370000
H      -44.55210000     -32.99920000     -75.14520000
S      -48.45980000     -33.09890000     -70.35410000
S      -43.20970000     -34.73170000     -74.23170000
C      -47.48120000     -34.55450000     -69.86750000
H      -47.73760000     -34.73570000     -68.83740000
H      -47.76950000     -35.49600000     -70.40790000
C      -43.50240000     -33.63420000     -72.74020000
H      -44.58290000     -33.66580000     -72.65850000
H      -43.21500000     -32.66530000     -72.95570000
C      -42.87170000     -34.20610000     -71.45890000
H      -43.40920000     -35.14760000     -71.09270000
H      -41.81160000     -34.44190000     -71.75170000
C      -45.92640000     -34.48140000     -70.00040000
H      -45.61010000     -34.34920000     -71.09340000
H      -45.58870000     -35.43520000     -69.58020000
C      -45.34280000     -33.34130000     -69.21470000
C      -45.95070000     -32.76550000     -68.20120000
C      -43.98070000     -32.75360000     -69.51830000
H      -46.97180000     -32.91340000     -67.89860000
C      -43.76060000     -31.63780000     -68.76600000
C      -42.91840000     -33.05860000     -70.43220000
C      -41.93840000     -32.07240000     -70.42490000
S      -45.04310000     -31.31610000     -67.60290000
S      -42.29320000     -30.73810000     -69.28560000
H      -41.06300000     -32.13840000     -71.09080000
