40
Properties=species:S:1:pos:R:3 #=T CELL(abcABC):=T 1.889726e+02=T 90.00000=T Traj:=T positionsangstrom=T Step:=T 0=T Bead:=T pbc="F F F"
C      -47.09670000     -34.07740000     -69.43710000
C      -45.99730000     -34.17770000     -68.61270000
C      -45.27520000     -33.00790000     -68.34390000
C      -45.66360000     -31.77590000     -68.89640000
C      -46.89350000     -31.64490000     -69.61770000
C      -47.54300000     -32.81160000     -69.87550000
H      -47.75890000     -34.98710000     -69.60220000
H      -44.34220000     -33.00760000     -67.75610000
H      -47.28860000     -30.72590000     -69.99230000
H      -48.41210000     -32.71390000     -70.63820000
C      -44.86870000     -30.54530000     -68.66860000
H      -43.91850000     -30.76670000     -68.12940000
H      -45.33470000     -29.72920000     -68.13110000
C      -45.56190000     -35.55290000     -68.14660000
H      -44.68710000     -35.62020000     -67.53780000
H      -46.31990000     -36.07270000     -67.55850000
S      -44.22750000     -29.70890000     -70.23990000
S      -45.26490000     -36.57510000     -69.62110000
C      -43.06630000     -30.92870000     -71.04380000
H      -42.64000000     -30.31170000     -71.90360000
H      -42.35620000     -31.09310000     -70.25710000
C      -43.78160000     -35.66860000     -70.29790000
H      -42.88470000     -35.91670000     -69.77580000
H      -43.88860000     -34.56260000     -70.13920000
C      -43.55180000     -35.79350000     -71.89270000
H      -42.57780000     -35.35240000     -72.08140000
H      -43.37410000     -36.75000000     -72.20550000
C      -43.57380000     -32.37120000     -71.48110000
H      -43.83530000     -32.96940000     -70.55250000
H      -42.72410000     -32.92050000     -71.82160000
C      -44.58800000     -32.52650000     -72.50190000
C      -45.39770000     -31.51300000     -72.91610000
C      -45.02880000     -33.80660000     -72.93310000
H      -45.31150000     -30.49130000     -72.64210000
C      -45.99090000     -33.67970000     -73.95750000
C      -44.57990000     -35.16670000     -72.83410000
C      -45.25110000     -36.01090000     -73.73990000
S      -46.52970000     -32.01380000     -74.17520000
S      -46.29030000     -35.15120000     -74.81770000
H      -45.06740000     -37.09520000     -73.81580000
