40
Properties=species:S:1:pos:R:3 #=T CELL(abcABC):=T 1.889726e+02=T 90.00000=T Traj:=T positionsangstrom=T Step:=T 0=T Bead:=T pbc="F F F"
C      -46.25610000     -29.51220000     -71.61320000
C      -47.00750000     -30.36320000     -72.42180000
C      -47.86750000     -31.30580000     -71.81290000
C      -47.95060000     -31.47510000     -70.45470000
C      -47.21950000     -30.59450000     -69.66090000
C      -46.34810000     -29.65220000     -70.24410000
H      -45.58410000     -28.84090000     -72.02240000
H      -48.57710000     -31.89530000     -72.37160000
H      -47.24740000     -30.71620000     -68.56800000
H      -45.73150000     -28.95390000     -69.61990000
C      -48.93580000     -32.39740000     -69.87050000
H      -49.99840000     -32.07880000     -70.00000000
H      -48.87290000     -32.44120000     -68.73130000
C      -46.82390000     -30.28630000     -73.92160000
H      -47.79670000     -30.26220000     -74.39300000
H      -46.26850000     -29.36170000     -74.18300000
S      -48.73090000     -34.24220000     -70.45900000
S      -46.05230000     -31.88300000     -74.58060000
C      -46.92080000     -34.38830000     -69.89570000
H      -46.29500000     -33.49830000     -70.11850000
H      -46.94110000     -34.62910000     -68.80470000
C      -44.54480000     -32.38230000     -73.63610000
H      -44.11760000     -31.56130000     -73.08140000
H      -43.77080000     -32.57020000     -74.39540000
C      -44.81010000     -33.61450000     -72.82290000
H      -45.56250000     -33.40290000     -72.12740000
H      -45.18480000     -34.37750000     -73.50110000
C      -46.27890000     -35.63610000     -70.54220000
H      -46.57970000     -35.57130000     -71.59780000
H      -46.74640000     -36.50200000     -70.15530000
C      -44.75940000     -35.74980000     -70.28540000
C      -44.22470000     -36.65730000     -69.38570000
C      -43.61930000     -35.06150000     -70.99450000
H      -44.72070000     -37.27990000     -68.66590000
C      -42.39150000     -35.38730000     -70.49300000
C      -43.57660000     -34.10350000     -72.09410000
C      -42.28530000     -33.68390000     -72.31410000
S      -42.45420000     -36.56090000     -69.17810000
S      -41.11890000     -34.51210000     -71.26590000
H      -41.94020000     -32.82820000     -72.82950000
