40
Properties=species:S:1:pos:R:3 #=T CELL(abcABC):=T 1.889726e+02=T 90.00000=T Traj:=T positionsangstrom=T Step:=T 0=T Bead:=T pbc="F F F"
C      -47.72320000     -34.38810000     -70.88310000
C      -47.85950000     -33.35010000     -69.96340000
C      -47.13650000     -33.43130000     -68.73950000
C      -46.29930000     -34.53430000     -68.45690000
C      -46.26820000     -35.58530000     -69.42200000
C      -46.98230000     -35.57920000     -70.60810000
H      -48.10850000     -34.16360000     -71.90170000
H      -47.35730000     -32.72540000     -67.96510000
H      -45.63180000     -36.31220000     -69.21470000
H      -46.92990000     -36.24270000     -71.41840000
C      -45.45850000     -34.52240000     -67.25100000
H      -45.43580000     -35.51250000     -66.70510000
H      -45.78830000     -33.80960000     -66.46800000
C      -48.82510000     -32.29820000     -70.21600000
H      -49.51830000     -32.52290000     -70.96990000
H      -49.36420000     -31.98770000     -69.32510000
S      -43.64160000     -33.96270000     -67.62460000
S      -47.94180000     -30.61650000     -70.77360000
C      -43.29490000     -34.33610000     -69.34890000
H      -42.22940000     -34.62990000     -69.37960000
H      -43.76310000     -35.32860000     -69.53260000
C      -46.91610000     -31.29670000     -72.18850000
H      -47.40450000     -30.96530000     -73.14260000
H      -47.08410000     -32.33350000     -72.15140000
C      -45.42960000     -31.01650000     -72.10550000
H      -45.36830000     -29.88780000     -72.10440000
H      -45.20750000     -31.31770000     -71.07750000
C      -43.66830000     -33.22060000     -70.36350000
H      -42.89450000     -32.45830000     -70.44950000
H      -44.52550000     -32.66540000     -70.02780000
C      -43.70070000     -33.83160000     -71.74380000
C      -43.27200000     -35.11940000     -72.04290000
C      -44.02800000     -33.07860000     -72.85020000
H      -42.71750000     -35.85230000     -71.36850000
C      -43.84240000     -33.76780000     -74.05660000
C      -44.67940000     -31.80800000     -73.16780000
C      -44.80300000     -31.54030000     -74.51140000
S      -43.36760000     -35.44920000     -73.75960000
S      -44.25070000     -32.85640000     -75.55820000
H      -45.17080000     -30.71450000     -75.09420000
