40
Properties=species:S:1:pos:R:3 #=T CELL(abcABC):=T 1.889726e+02=T 90.00000=T Traj:=T positionsangstrom=T Step:=T 0=T Bead:=T pbc="F F F"
C      -46.17730000     -35.17660000     -74.91660000
C      -47.20800000     -35.23890000     -73.96310000
C      -47.63450000     -34.00880000     -73.35350000
C      -47.13290000     -32.81040000     -73.85360000
C      -46.06640000     -32.69470000     -74.80580000
C      -45.60200000     -33.91930000     -75.33010000
H      -45.79690000     -36.05210000     -75.50620000
H      -48.61790000     -33.98230000     -72.81450000
H      -45.72080000     -31.81990000     -75.34960000
H      -44.86010000     -33.91850000     -76.16410000
C      -47.66190000     -31.49940000     -73.23700000
H      -47.98910000     -31.72360000     -72.22570000
H      -48.42690000     -31.09780000     -73.90040000
C      -47.52630000     -36.60140000     -73.26540000
H      -48.29810000     -36.38620000     -72.54720000
H      -47.75700000     -37.40930000     -73.93680000
S      -46.48650000     -30.11560000     -72.99630000
S      -46.02280000     -37.12760000     -72.36880000
C      -45.27230000     -30.76580000     -71.84280000
H      -44.51960000     -31.44420000     -72.28640000
H      -44.58590000     -29.96430000     -71.53030000
C      -45.81870000     -35.96030000     -70.93800000
H      -45.45060000     -36.33120000     -69.97890000
H      -46.86910000     -35.60200000     -70.89110000
C      -44.92440000     -34.66320000     -71.31110000
H      -44.33030000     -35.00020000     -72.16400000
H      -45.58410000     -33.84320000     -71.61480000
C      -45.98370000     -31.52600000     -70.75180000
H      -46.47350000     -32.50970000     -71.03550000
H      -46.75820000     -30.97500000     -70.32080000
C      -44.96970000     -31.76240000     -69.64840000
C      -44.77170000     -30.80770000     -68.68450000
C      -44.30500000     -33.03880000     -69.41080000
H      -45.31380000     -29.91920000     -68.59430000
C      -43.35910000     -32.84420000     -68.39650000
C      -44.05470000     -34.27560000     -70.10280000
C      -43.12640000     -35.04570000     -69.42550000
S      -43.62880000     -31.32690000     -67.52520000
S      -42.36460000     -34.19850000     -68.07000000
H      -42.61420000     -35.92820000     -69.82760000
