40
Properties=species:S:1:pos:R:3 #=T CELL(abcABC):=T 1.889726e+02=T 90.00000=T Traj:=T positionsangstrom=T Step:=T 0=T Bead:=T pbc="F F F"
C      -47.82870000     -34.23860000     -70.73610000
C      -47.10500000     -34.34400000     -69.49460000
C      -46.55460000     -33.20350000     -68.90010000
C      -46.72580000     -31.91800000     -69.45710000
C      -47.65850000     -31.80240000     -70.54650000
C      -48.08500000     -32.95330000     -71.28160000
H      -48.45230000     -35.08390000     -71.12450000
H      -45.88160000     -33.35630000     -67.97740000
H      -47.91580000     -30.71430000     -70.88700000
H      -48.77790000     -32.84310000     -72.00490000
C      -46.07180000     -30.78020000     -68.73200000
H      -45.56260000     -31.04440000     -67.80660000
H      -46.81170000     -30.01560000     -68.53520000
C      -46.86880000     -35.69980000     -68.96280000
H      -46.32330000     -35.58930000     -68.02990000
H      -47.75900000     -36.26570000     -68.73920000
S      -44.71920000     -29.88140000     -69.81960000
S      -45.80490000     -36.82060000     -70.04740000
C      -43.22940000     -30.95780000     -69.79470000
H      -42.45310000     -30.44350000     -70.47900000
H      -42.82680000     -30.95820000     -68.71720000
C      -44.25920000     -35.90260000     -69.90280000
H      -43.64830000     -36.29120000     -69.09830000
H      -44.54460000     -34.86330000     -69.51940000
C      -43.50370000     -35.80690000     -71.21130000
H      -42.57040000     -35.28980000     -70.93790000
H      -43.30340000     -36.80250000     -71.59410000
C      -43.38880000     -32.38370000     -70.33690000
H      -43.94820000     -32.93240000     -69.64030000
H      -42.33240000     -32.83690000     -70.32720000
C      -44.04580000     -32.55060000     -71.78920000
C      -44.01710000     -31.36280000     -72.57980000
C      -44.38080000     -33.73440000     -72.46800000
H      -43.50810000     -30.49040000     -72.27720000
C      -44.81020000     -33.33930000     -73.76390000
C      -44.31020000     -35.16170000     -72.30360000
C      -44.78130000     -35.79160000     -73.43400000
S      -44.66240000     -31.70240000     -74.20280000
S      -45.38310000     -34.66740000     -74.70360000
H      -44.89780000     -36.87840000     -73.46460000
