40
Properties=species:S:1:pos:R:3 #=T CELL(abcABC):=T 1.889726e+02=T 90.00000=T Traj:=T positionsangstrom=T Step:=T 0=T Bead:=T pbc="F F F"
C      -48.34480000     -34.45190000     -69.72880000
C      -47.91240000     -33.28790000     -69.05240000
C      -46.70700000     -33.34300000     -68.30880000
C      -45.92880000     -34.52020000     -68.25390000
C      -46.33850000     -35.61230000     -68.97360000
C      -47.46340000     -35.57220000     -69.75080000
H      -49.20620000     -34.38760000     -70.41460000
H      -46.45070000     -32.50360000     -67.73170000
H      -45.64830000     -36.55270000     -69.04190000
H      -47.82540000     -36.46790000     -70.35920000
C      -44.65850000     -34.56800000     -67.48440000
H      -44.16900000     -35.52880000     -67.46240000
H      -44.95260000     -34.38610000     -66.43680000
C      -48.64400000     -31.99090000     -69.31030000
H      -49.52380000     -32.06100000     -69.93780000
H      -48.96230000     -31.45030000     -68.37320000
S      -43.38340000     -33.34140000     -68.00830000
S      -47.50550000     -30.76200000     -70.19750000
C      -42.86950000     -33.91380000     -69.71580000
H      -41.75420000     -33.74680000     -69.79960000
H      -42.99520000     -34.97190000     -69.56540000
C      -47.10550000     -31.70200000     -71.78110000
H      -48.07140000     -31.80730000     -72.33190000
H      -46.94520000     -32.69980000     -71.39510000
C      -45.88500000     -31.09050000     -72.56680000
H      -46.25000000     -30.22090000     -73.12930000
H      -45.21180000     -30.76200000     -71.77610000
C      -43.77630000     -33.25820000     -70.79440000
H      -43.56730000     -32.18670000     -70.65600000
H      -44.86380000     -33.31490000     -70.45900000
C      -43.81200000     -33.80670000     -72.12160000
C      -43.02440000     -34.90640000     -72.41870000
C      -44.43690000     -33.24740000     -73.34120000
H      -42.56870000     -35.57840000     -71.70470000
C      -44.08840000     -33.96480000     -74.45360000
C      -45.25830000     -32.10220000     -73.59830000
C      -45.46970000     -31.97820000     -74.98590000
S      -43.04350000     -35.30600000     -74.13020000
S      -44.67420000     -33.23480000     -75.93520000
H      -46.16090000     -31.16630000     -75.29700000
