40
Properties=species:S:1:pos:R:3 #=T CELL(abcABC):=T 1.889726e+02=T 90.00000=T Traj:=T positionsangstrom=T Step:=T 0=T Bead:=T pbc="F F F"
C      -47.67210000     -33.51670000     -71.21070000
C      -47.04410000     -34.04140000     -70.04000000
C      -46.44570000     -33.08110000     -69.13500000
C      -46.44090000     -31.69640000     -69.43370000
C      -47.20310000     -31.21650000     -70.54700000
C      -47.73770000     -32.13020000     -71.44340000
H      -48.09800000     -34.19540000     -71.95240000
H      -45.71470000     -33.46080000     -68.31770000
H      -47.21050000     -30.18420000     -70.74590000
H      -48.17650000     -31.82100000     -72.35250000
C      -45.62340000     -30.72720000     -68.60880000
H      -44.90850000     -31.19850000     -67.94420000
H      -46.28360000     -29.95310000     -68.22210000
C      -47.25010000     -35.49240000     -69.57890000
H      -47.38800000     -35.52860000     -68.54500000
H      -48.17340000     -35.94230000     -69.99020000
S      -44.59470000     -29.79730000     -69.83670000
S      -45.97080000     -36.71370000     -70.00910000
C      -43.09030000     -30.93230000     -70.08390000
H      -42.57130000     -30.32860000     -70.77670000
H      -42.65990000     -30.84590000     -69.05970000
C      -44.41520000     -35.74600000     -69.61580000
H      -43.95210000     -36.19260000     -68.68720000
H      -44.72170000     -34.79140000     -69.17850000
C      -43.40500000     -35.53860000     -70.72210000
H      -42.60230000     -34.86130000     -70.26220000
H      -42.88310000     -36.52080000     -70.87300000
C      -43.36220000     -32.34190000     -70.58380000
H      -43.98700000     -32.91180000     -69.79520000
H      -42.36720000     -32.78720000     -70.51320000
C      -44.13650000     -32.47600000     -71.88140000
C      -44.60680000     -31.52930000     -72.84060000
C      -44.31620000     -33.79910000     -72.39330000
H      -44.72180000     -30.43980000     -72.75010000
C      -44.94190000     -33.83880000     -73.64580000
C      -43.96720000     -35.13320000     -72.02160000
C      -44.48000000     -36.09460000     -72.85840000
S      -45.37170000     -32.26100000     -74.22090000
S      -45.21430000     -35.38550000     -74.29810000
H      -44.30140000     -37.16750000     -72.88600000
