40
Properties=species:S:1:pos:R:3 #=T CELL(abcABC):=T 1.889726e+02=T 90.00000=T Traj:=T positionsangstrom=T Step:=T 0=T Bead:=T pbc="F F F"
C      -48.05930000     -33.64580000     -70.75150000
C      -47.32160000     -33.92140000     -69.59460000
C      -46.45600000     -32.92910000     -69.09630000
C      -46.20070000     -31.73090000     -69.72940000
C      -46.93220000     -31.46280000     -70.90850000
C      -47.87890000     -32.34780000     -71.37680000
H      -48.81110000     -34.28160000     -71.16540000
H      -46.01760000     -33.00490000     -68.08140000
H      -46.85490000     -30.45040000     -71.31310000
H      -48.49380000     -32.21000000     -72.23860000
C      -45.36140000     -30.62940000     -69.09910000
H      -44.91050000     -31.06430000     -68.11040000
H      -46.03910000     -29.83030000     -68.88840000
C      -47.44660000     -35.18630000     -68.78330000
H      -47.04220000     -35.00210000     -67.79660000
H      -48.49930000     -35.57340000     -68.61660000
S      -43.90300000     -29.93010000     -70.06810000
S      -46.49720000     -36.58720000     -69.50760000
C      -42.63840000     -31.23710000     -70.18100000
H      -41.70310000     -30.84040000     -70.66970000
H      -42.24890000     -31.30640000     -69.15020000
C      -44.79240000     -35.74330000     -69.42410000
H      -44.10190000     -36.21050000     -68.57150000
H      -44.95100000     -34.72500000     -69.08120000
C      -43.92220000     -35.73320000     -70.68870000
H      -43.00430000     -35.07410000     -70.40450000
H      -43.56740000     -36.74590000     -70.80630000
C      -43.06720000     -32.56800000     -70.79240000
H      -43.67340000     -33.11840000     -69.98010000
H      -42.12120000     -33.18670000     -70.87490000
C      -43.77260000     -32.58500000     -72.05240000
C      -43.88450000     -31.61290000     -73.07970000
C      -44.32630000     -33.86240000     -72.53710000
H      -43.58890000     -30.62160000     -73.01310000
C      -44.84570000     -33.73390000     -73.82310000
C      -44.61830000     -35.23630000     -71.95330000
C      -45.35680000     -35.97070000     -72.82890000
S      -44.69220000     -32.15950000     -74.51640000
S      -45.75800000     -35.14650000     -74.29670000
H      -45.81980000     -36.92970000     -72.65610000
