40
Properties=species:S:1:pos:R:3 #=T CELL(abcABC):=T 1.889726e+02=T 90.00000=T Traj:=T positionsangstrom=T Step:=T 0=T Bead:=T pbc="F F F"
C      -47.95290000     -33.74550000     -70.62280000
C      -47.46450000     -33.76680000     -69.32930000
C      -46.68500000     -32.73900000     -68.83250000
C      -46.33850000     -31.62510000     -69.57960000
C      -46.86210000     -31.54930000     -70.83810000
C      -47.68100000     -32.64320000     -71.36560000
H      -48.64950000     -34.45910000     -71.01110000
H      -46.40580000     -32.83850000     -67.81920000
H      -46.50000000     -30.90270000     -71.60480000
H      -47.93330000     -32.53000000     -72.43650000
C      -45.27810000     -30.72620000     -69.08080000
H      -44.75080000     -31.35020000     -68.33810000
H      -45.64630000     -29.75660000     -68.67160000
C      -47.53880000     -35.01910000     -68.57600000
H      -47.26980000     -34.77760000     -67.52010000
H      -48.51850000     -35.43990000     -68.61690000
S      -44.29890000     -30.05550000     -70.48370000
S      -46.37180000     -36.27750000     -69.20080000
C      -42.79750000     -31.08550000     -70.33190000
H      -42.08750000     -30.60660000     -70.98700000
H      -42.46980000     -31.12990000     -69.30130000
C      -44.79430000     -35.39300000     -69.45670000
H      -44.06260000     -35.53000000     -68.66740000
H      -44.98020000     -34.30140000     -69.72700000
C      -44.07510000     -35.83030000     -70.74690000
H      -43.05050000     -35.51840000     -70.58950000
H      -43.98530000     -36.98570000     -70.77550000
C      -43.06010000     -32.56790000     -70.75780000
H      -43.65780000     -33.04140000     -69.92370000
H      -42.08500000     -33.10840000     -70.70390000
C      -43.65160000     -32.75260000     -72.06800000
C      -43.74220000     -31.69850000     -72.98150000
C      -44.25510000     -33.95960000     -72.55650000
H      -43.43690000     -30.66330000     -72.80340000
C      -44.91520000     -33.76990000     -73.79300000
C      -44.54460000     -35.35820000     -72.11930000
C      -45.28180000     -36.10910000     -72.98810000
S      -44.57000000     -32.17580000     -74.46340000
S      -45.60880000     -35.24040000     -74.46500000
H      -45.54100000     -37.17610000     -72.84520000
