40
Properties=species:S:1:pos:R:3 #=T CELL(abcABC):=T 1.889726e+02=T 90.00000=T Traj:=T positionsangstrom=T Step:=T 0=T Bead:=T pbc="F F F"
C      -46.78200000     -35.72430000     -74.67660000
C      -46.39380000     -34.38760000     -74.34630000
C      -47.20010000     -33.69300000     -73.39510000
C      -48.33730000     -34.29500000     -72.82130000
C      -48.70400000     -35.63530000     -73.22270000
C      -47.92710000     -36.29720000     -74.11450000
H      -46.13310000     -36.40860000     -75.31610000
H      -47.00510000     -32.67860000     -73.04660000
H      -49.59330000     -36.08640000     -72.76280000
H      -48.14750000     -37.33510000     -74.34150000
C      -49.19350000     -33.51610000     -71.91630000
H      -50.08040000     -34.08260000     -71.73110000
H      -49.59620000     -32.54010000     -72.28190000
C      -45.22990000     -33.76100000     -75.07590000
H      -45.40250000     -33.97440000     -76.11810000
H      -45.28040000     -32.68880000     -74.83550000
S      -48.39960000     -33.11590000     -70.27580000
S      -43.59530000     -34.43320000     -74.38340000
C      -47.31910000     -34.66400000     -69.87080000
H      -47.55900000     -35.00920000     -68.89660000
H      -47.75290000     -35.48120000     -70.52110000
C      -43.19310000     -33.22000000     -73.02730000
H      -44.11450000     -32.62000000     -72.73130000
H      -42.47260000     -32.44530000     -73.40010000
C      -42.63950000     -33.93980000     -71.80700000
H      -43.13150000     -34.90890000     -71.62350000
H      -41.64580000     -34.32290000     -71.97890000
C      -45.81000000     -34.39600000     -70.22420000
H      -45.55860000     -34.24240000     -71.30510000
H      -45.31600000     -35.39330000     -70.06260000
C      -45.13180000     -33.25680000     -69.50840000
C      -45.78350000     -32.54050000     -68.52790000
C      -43.76840000     -32.74010000     -69.71070000
H      -46.82060000     -32.62040000     -68.21550000
C      -43.52000000     -31.71740000     -68.79090000
C      -42.64860000     -33.09190000     -70.57200000
C      -41.58760000     -32.33630000     -70.23990000
S      -44.89820000     -31.26060000     -67.84160000
S      -41.88560000     -31.14180000     -69.00180000
H      -40.64250000     -32.36450000     -70.82440000
