40
Properties=species:S:1:pos:R:3 #=T CELL(abcABC):=T 1.889726e+02=T 90.00000=T Traj:=T positionsangstrom=T Step:=T 0=T Bead:=T pbc="F F F"
C      -47.98030000     -33.77810000     -70.50020000
C      -47.37400000     -33.88180000     -69.28890000
C      -46.56070000     -32.71980000     -68.81770000
C      -46.37300000     -31.58960000     -69.65060000
C      -47.02470000     -31.63130000     -70.90350000
C      -47.81420000     -32.70710000     -71.35180000
H      -48.49430000     -34.69490000     -70.74230000
H      -45.95990000     -32.87290000     -67.92310000
H      -47.09510000     -30.73160000     -71.53280000
H      -48.36050000     -32.63700000     -72.28370000
C      -45.56540000     -30.36810000     -69.23690000
H      -45.23530000     -30.59400000     -68.23200000
H      -46.09530000     -29.37590000     -69.12050000
C      -47.43720000     -35.11460000     -68.45290000
H      -47.19590000     -35.01330000     -67.41380000
H      -48.49810000     -35.40020000     -68.47150000
S      -44.16560000     -29.94700000     -70.42070000
S      -46.34200000     -36.45990000     -69.23090000
C      -42.79390000     -31.14670000     -70.23300000
H      -41.99350000     -30.67880000     -70.72340000
H      -42.41260000     -31.30530000     -69.24310000
C      -44.86070000     -35.36730000     -69.47350000
H      -44.28360000     -35.51850000     -68.53890000
H      -45.12850000     -34.36430000     -69.44290000
C      -43.98120000     -35.74610000     -70.64900000
H      -42.99580000     -35.35660000     -70.52930000
H      -43.86770000     -36.84130000     -70.76070000
C      -43.11220000     -32.50370000     -70.78340000
H      -43.79290000     -32.95730000     -70.08450000
H      -42.25140000     -33.18260000     -70.76570000
C      -43.73390000     -32.66230000     -72.13180000
C      -43.73860000     -31.76170000     -73.16220000
C      -44.34630000     -33.90410000     -72.55870000
H      -43.43680000     -30.74580000     -73.09570000
C      -44.86460000     -33.79320000     -73.83770000
C      -44.55140000     -35.23400000     -72.04520000
C      -45.17250000     -36.10870000     -72.93770000
S      -44.54780000     -32.24680000     -74.56290000
S      -45.60890000     -35.23720000     -74.42160000
H      -45.45670000     -37.15770000     -72.81960000
