40
Properties=species:S:1:pos:R:3 #=T CELL(abcABC):=T 1.889726e+02=T 90.00000=T Traj:=T positionsangstrom=T Step:=T 0=T Bead:=T pbc="F F F"
C      -47.82220000     -33.53080000     -71.14770000
C      -47.38790000     -33.97200000     -69.87450000
C      -46.57640000     -33.12760000     -69.11610000
C      -46.15220000     -31.84590000     -69.53860000
C      -46.68330000     -31.45380000     -70.75080000
C      -47.52540000     -32.22280000     -71.54790000
H      -48.43720000     -34.16970000     -71.73160000
H      -46.20040000     -33.49840000     -68.19880000
H      -46.43370000     -30.46170000     -71.09690000
H      -47.95580000     -31.79850000     -72.41950000
C      -45.29640000     -30.84380000     -68.80540000
H      -45.14910000     -31.18690000     -67.73000000
H      -45.88930000     -29.96990000     -68.74040000
C      -47.66350000     -35.34910000     -69.30870000
H      -47.61740000     -35.40880000     -68.26520000
H      -48.64800000     -35.71740000     -69.67740000
S      -43.68630000     -30.20560000     -69.40080000
S      -46.43890000     -36.58260000     -70.01750000
C      -42.53470000     -31.57350000     -69.82920000
H      -41.75950000     -31.11200000     -70.46200000
H      -42.15740000     -32.02080000     -68.86500000
C      -44.64130000     -35.92350000     -69.76930000
H      -44.12470000     -36.54580000     -69.00210000
H      -44.80250000     -34.90980000     -69.46730000
C      -43.83140000     -35.99780000     -71.10110000
H      -42.84660000     -35.54530000     -70.73420000
H      -43.61700000     -37.06660000     -71.34100000
C      -43.07260000     -32.77630000     -70.62570000
H      -43.69740000     -33.45520000     -70.01270000
H      -42.17640000     -33.41830000     -70.85260000
C      -43.78680000     -32.61900000     -71.93610000
C      -44.10120000     -31.41070000     -72.60380000
C      -44.47260000     -33.80010000     -72.54130000
H      -43.62050000     -30.46710000     -72.49330000
C      -45.20580000     -33.45720000     -73.68650000
C      -44.53060000     -35.18360000     -72.28530000
C      -45.22210000     -35.96390000     -73.17340000
S      -45.00030000     -31.68770000     -74.06430000
S      -45.89750000     -34.89000000     -74.46510000
H      -45.28670000     -37.07160000     -73.14630000
