40
Properties=species:S:1:pos:R:3 #=T CELL(abcABC):=T 1.889726e+02=T 90.00000=T Traj:=T positionsangstrom=T Step:=T 0=T Bead:=T pbc="F F F"
C      -47.68620000     -33.49500000     -71.08570000
C      -47.19530000     -33.95220000     -69.86680000
C      -46.54980000     -32.99790000     -69.10290000
C      -46.14990000     -31.69190000     -69.56680000
C      -46.65950000     -31.27680000     -70.78380000
C      -47.37520000     -32.20620000     -71.52390000
H      -48.28320000     -34.14330000     -71.75250000
H      -46.28200000     -33.30110000     -68.10670000
H      -46.37720000     -30.26110000     -71.13400000
H      -47.55970000     -31.97210000     -72.60490000
C      -45.31710000     -30.81640000     -68.72780000
H      -44.88430000     -31.30070000     -67.82360000
H      -45.88570000     -29.98770000     -68.41480000
C      -47.47440000     -35.29920000     -69.33000000
H      -47.34350000     -35.26980000     -68.19850000
H      -48.49480000     -35.60380000     -69.48940000
S      -43.89660000     -30.08100000     -69.73860000
S      -46.39860000     -36.62040000     -70.05770000
C      -42.63020000     -31.35980000     -70.03120000
H      -41.81830000     -30.81650000     -70.56940000
H      -42.09560000     -31.56240000     -69.14880000
C      -44.79140000     -35.95350000     -69.68740000
H      -44.32540000     -36.51730000     -68.87930000
H      -44.73210000     -34.93550000     -69.30530000
C      -43.83640000     -36.05530000     -70.87160000
H      -42.90440000     -35.57390000     -70.75720000
H      -43.72830000     -37.13310000     -71.12430000
C      -43.07090000     -32.74150000     -70.59230000
H      -43.82860000     -33.14770000     -69.86540000
H      -42.24610000     -33.41310000     -70.50810000
C      -43.65240000     -32.71980000     -71.92690000
C      -44.07350000     -31.55960000     -72.59650000
C      -44.34070000     -33.93620000     -72.48770000
H      -43.71000000     -30.55350000     -72.36710000
C      -45.05890000     -33.58650000     -73.69390000
C      -44.47180000     -35.33070000     -72.18610000
C      -45.27260000     -35.96350000     -73.09810000
S      -45.10580000     -31.84960000     -74.03050000
S      -45.97010000     -34.89570000     -74.33610000
H      -45.56900000     -37.06530000     -73.08390000
