40
Properties=species:S:1:pos:R:3 #=T CELL(abcABC):=T 1.889726e+02=T 90.00000=T Traj:=T positionsangstrom=T Step:=T 0=T Bead:=T pbc="F F F"
C      -47.84670000     -33.42570000     -70.93580000
C      -47.36170000     -33.96120000     -69.77150000
C      -46.45710000     -33.14740000     -68.99860000
C      -46.13750000     -31.83020000     -69.30040000
C      -46.71340000     -31.36330000     -70.50880000
C      -47.51960000     -32.12780000     -71.34220000
H      -48.63240000     -33.98240000     -71.49050000
H      -46.02730000     -33.66000000     -68.12790000
H      -46.55440000     -30.31270000     -70.77760000
H      -47.92770000     -31.72780000     -72.32210000
C      -45.09080000     -31.07810000     -68.50630000
H      -44.60980000     -31.74020000     -67.79250000
H      -45.54810000     -30.27390000     -67.91810000
C      -47.82750000     -35.31650000     -69.42620000
H      -47.92520000     -35.45740000     -68.36780000
H      -48.77030000     -35.51080000     -69.81720000
S      -43.84390000     -30.32470000     -69.54070000
S      -46.68680000     -36.73220000     -70.06410000
C      -42.47920000     -31.58220000     -69.85850000
H      -41.77360000     -31.19870000     -70.62910000
H      -41.84430000     -31.72090000     -69.01160000
C      -44.97740000     -36.20940000     -69.96020000
H      -44.62820000     -36.89560000     -69.20460000
H      -44.94670000     -35.28310000     -69.39650000
C      -44.16550000     -36.17200000     -71.25360000
H      -43.15880000     -35.87850000     -71.03410000
H      -44.22120000     -37.23650000     -71.58550000
C      -43.15310000     -32.83820000     -70.37770000
H      -43.93460000     -33.30810000     -69.74620000
H      -42.42280000     -33.65520000     -70.42500000
C      -43.76300000     -32.71620000     -71.79940000
C      -43.77210000     -31.53610000     -72.52570000
C      -44.46030000     -33.75450000     -72.52100000
H      -43.36800000     -30.61760000     -72.10060000
C      -44.87580000     -33.37580000     -73.74810000
C      -44.72060000     -35.19590000     -72.37460000
C      -45.30600000     -35.68180000     -73.49790000
S      -44.69490000     -31.69750000     -74.01100000
S      -45.70990000     -34.47130000     -74.70580000
H      -45.47050000     -36.71500000     -73.73600000
