40
Properties=species:S:1:pos:R:3 #=T CELL(abcABC):=T 1.889726e+02=T 90.00000=T Traj:=T positionsangstrom=T Step:=T 0=T Bead:=T pbc="F F F"
C      -47.90030000     -33.47610000     -70.92970000
C      -47.40430000     -33.98780000     -69.70840000
C      -46.60820000     -33.17470000     -68.93300000
C      -46.13250000     -31.90220000     -69.27530000
C      -46.73630000     -31.39980000     -70.42430000
C      -47.63030000     -32.12250000     -71.18220000
H      -48.52160000     -34.19480000     -71.52900000
H      -46.26270000     -33.56370000     -68.01910000
H      -46.46790000     -30.37510000     -70.74200000
H      -48.04810000     -31.62140000     -72.11290000
C      -45.21490000     -31.05620000     -68.40210000
H      -44.77190000     -31.64080000     -67.57410000
H      -45.76400000     -30.25140000     -67.88370000
C      -47.62190000     -35.42970000     -69.29920000
H      -47.35020000     -35.48830000     -68.20460000
H      -48.60950000     -35.73960000     -69.44550000
S      -43.83340000     -30.28170000     -69.37240000
S      -46.82090000     -36.63090000     -70.35300000
C      -42.70550000     -31.75440000     -69.63780000
H      -41.80350000     -31.30220000     -70.10040000
H      -42.55790000     -32.10400000     -68.60870000
C      -45.15140000     -35.99630000     -70.06780000
H      -44.61160000     -36.50620000     -69.17960000
H      -45.25180000     -34.94980000     -69.76810000
C      -44.18540000     -36.09840000     -71.29230000
H      -43.15160000     -35.92330000     -70.92990000
H      -44.19400000     -37.14890000     -71.65630000
C      -43.00210000     -32.98000000     -70.48650000
H      -43.69670000     -33.57190000     -69.86750000
H      -42.03690000     -33.54670000     -70.60970000
C      -43.65290000     -32.73100000     -71.82080000
C      -43.64930000     -31.54750000     -72.51460000
C      -44.39430000     -33.74100000     -72.54950000
H      -42.99930000     -30.70530000     -72.22880000
C      -44.80650000     -33.31860000     -73.82530000
C      -44.59780000     -35.24300000     -72.47240000
C      -45.33780000     -35.74780000     -73.48800000
S      -44.49810000     -31.59660000     -74.04320000
S      -45.74520000     -34.56090000     -74.74870000
H      -45.62450000     -36.78480000     -73.53200000
