40
Properties=species:S:1:pos:R:3 #=T CELL(abcABC):=T 1.889726e+02=T 90.00000=T Traj:=T positionsangstrom=T Step:=T 0=T Bead:=T pbc="F F F"
C      -46.77770000     -35.76510000     -74.54670000
C      -46.60820000     -34.40740000     -74.27130000
C      -47.52050000     -33.72730000     -73.40570000
C      -48.59900000     -34.47920000     -72.83180000
C      -48.75800000     -35.81860000     -73.15580000
C      -47.94090000     -36.40800000     -74.11160000
H      -46.19070000     -36.32660000     -75.24630000
H      -47.38890000     -32.68050000     -73.27930000
H      -49.61200000     -36.39310000     -72.66040000
H      -47.98570000     -37.49360000     -74.37730000
C      -49.43840000     -33.75130000     -71.80780000
H      -50.15010000     -34.51550000     -71.42220000
H      -50.01530000     -32.97590000     -72.26490000
C      -45.35090000     -33.66300000     -74.77090000
H      -45.30200000     -33.65460000     -75.92780000
H      -45.27880000     -32.63040000     -74.48410000
S      -48.44760000     -33.13000000     -70.35560000
S      -43.73080000     -34.41620000     -74.36920000
C      -47.24020000     -34.43850000     -70.04370000
H      -47.20590000     -34.88670000     -69.03980000
H      -47.59440000     -35.25490000     -70.72320000
C      -43.17690000     -33.35850000     -72.92200000
H      -44.01170000     -32.71190000     -72.69450000
H      -42.40600000     -32.73410000     -73.26900000
C      -42.71590000     -34.08540000     -71.68370000
H      -43.48330000     -34.84750000     -71.39800000
H      -41.71940000     -34.49020000     -71.94560000
C      -45.79290000     -34.07880000     -70.50650000
H      -45.93110000     -33.74560000     -71.48420000
H      -45.17480000     -34.98010000     -70.45200000
C      -45.11790000     -32.99670000     -69.67060000
C      -45.72290000     -32.36860000     -68.58570000
C      -43.71430000     -32.65620000     -69.81460000
H      -46.72600000     -32.44150000     -68.27330000
C      -43.33710000     -31.74200000     -68.82930000
C      -42.58190000     -33.02420000     -70.63140000
C      -41.49760000     -32.21850000     -70.39730000
S      -44.61550000     -31.31400000     -67.72440000
S      -41.70090000     -31.18340000     -69.00640000
H      -40.50790000     -32.18920000     -70.89470000
