40
Properties=species:S:1:pos:R:3 #=T CELL(abcABC):=T 1.889726e+02=T 90.00000=T Traj:=T positionsangstrom=T Step:=T 0=T Bead:=T pbc="F F F"
C      -47.91900000     -33.38260000     -70.98940000
C      -47.31620000     -33.90370000     -69.81520000
C      -46.36070000     -33.12170000     -69.16350000
C      -46.02060000     -31.86830000     -69.57360000
C      -46.61050000     -31.40890000     -70.74540000
C      -47.56350000     -32.14970000     -71.45910000
H      -48.50640000     -34.05930000     -71.52470000
H      -45.97880000     -33.54230000     -68.20400000
H      -46.28010000     -30.43430000     -71.12820000
H      -47.99830000     -31.73410000     -72.30780000
C      -45.15330000     -31.09990000     -68.56560000
H      -44.77860000     -31.81980000     -67.87820000
H      -45.76790000     -30.29430000     -68.05760000
C      -47.68120000     -35.27490000     -69.31560000
H      -47.57690000     -35.37440000     -68.23770000
H      -48.78000000     -35.52100000     -69.60300000
S      -43.74940000     -30.24070000     -69.50570000
S      -46.58100000     -36.71080000     -70.04200000
C      -42.57510000     -31.56440000     -69.83350000
H      -41.71320000     -31.24240000     -70.38550000
H      -42.17830000     -31.88230000     -68.81850000
C      -44.81300000     -35.89400000     -69.91380000
H      -44.20600000     -36.26070000     -69.04810000
H      -44.95040000     -34.81160000     -69.76780000
C      -44.01260000     -36.04430000     -71.18580000
H      -43.00290000     -35.62750000     -71.03750000
H      -43.86180000     -37.05040000     -71.51110000
C      -43.15760000     -32.83470000     -70.50230000
H      -43.76840000     -33.39400000     -69.79300000
H      -42.24070000     -33.38210000     -70.66770000
C      -43.81480000     -32.69800000     -71.79960000
C      -43.94970000     -31.51380000     -72.49540000
C      -44.49260000     -33.79740000     -72.47870000
H      -43.51630000     -30.57680000     -72.09890000
C      -45.12210000     -33.41700000     -73.64700000
C      -44.69260000     -35.23300000     -72.30620000
C      -45.33330000     -35.82770000     -73.36000000
S      -44.86900000     -31.70100000     -73.99400000
S      -45.78760000     -34.71780000     -74.61750000
H      -45.48650000     -36.88700000     -73.29710000
