40
Properties=species:S:1:pos:R:3 #=T CELL(abcABC):=T 1.889726e+02=T 90.00000=T Traj:=T positionsangstrom=T Step:=T 0=T Bead:=T pbc="F F F"
C      -48.11840000     -33.38670000     -70.75730000
C      -47.51300000     -34.00700000     -69.63980000
C      -46.71390000     -33.24490000     -68.79340000
C      -46.30570000     -31.97720000     -69.18220000
C      -46.79990000     -31.42830000     -70.37270000
C      -47.74930000     -32.08960000     -71.13200000
H      -48.72470000     -33.99560000     -71.36220000
H      -46.40110000     -33.59190000     -67.82610000
H      -46.46790000     -30.42370000     -70.65040000
H      -48.22440000     -31.55420000     -71.96420000
C      -45.35720000     -31.10860000     -68.35680000
H      -44.92820000     -31.63400000     -67.47040000
H      -45.82090000     -30.20810000     -67.99250000
C      -47.74020000     -35.42850000     -69.27610000
H      -47.48470000     -35.61780000     -68.24560000
H      -48.81540000     -35.79140000     -69.46760000
S      -43.85380000     -30.47350000     -69.37340000
S      -46.83510000     -36.35370000     -70.65830000
C      -42.67400000     -31.91350000     -69.56390000
H      -41.89010000     -31.40700000     -70.09920000
H      -42.26940000     -32.19180000     -68.58770000
C      -45.02550000     -36.13980000     -70.10420000
H      -44.69000000     -36.99210000     -69.50960000
H      -44.94630000     -35.21760000     -69.51820000
C      -44.10380000     -36.11630000     -71.34300000
H      -43.06880000     -35.85240000     -70.94960000
H      -44.00420000     -37.10350000     -71.70230000
C      -43.19010000     -33.09590000     -70.39400000
H      -44.09280000     -33.48290000     -69.95750000
H      -42.41340000     -33.90900000     -70.46360000
C      -43.60520000     -32.76100000     -71.82840000
C      -43.53450000     -31.51540000     -72.47090000
C      -44.26970000     -33.73240000     -72.61510000
H      -42.95780000     -30.64260000     -72.17800000
C      -44.73470000     -33.20030000     -73.83890000
C      -44.50260000     -35.18060000     -72.45800000
C      -45.26810000     -35.66460000     -73.44670000
S      -44.30050000     -31.60010000     -74.05260000
S      -45.69580000     -34.50880000     -74.72040000
H      -45.63600000     -36.69090000     -73.67180000
