40
Properties=species:S:1:pos:R:3 #=T CELL(abcABC):=T 1.889726e+02=T 90.00000=T Traj:=T positionsangstrom=T Step:=T 0=T Bead:=T pbc="F F F"
C      -43.12850000     -34.29210000     -73.31530000
C      -42.56670000     -33.39770000     -72.32470000
C      -42.41980000     -33.85080000     -70.99550000
C      -42.83090000     -35.17940000     -70.63170000
C      -43.40950000     -36.00220000     -71.65250000
C      -43.69600000     -35.47610000     -72.92270000
H      -43.19490000     -33.91240000     -74.38350000
H      -42.02300000     -33.19130000     -70.26500000
H      -43.80410000     -36.95980000     -71.33370000
H      -44.25930000     -36.07630000     -73.68930000
C      -42.54850000     -35.73800000     -69.23410000
H      -41.74630000     -35.16200000     -68.76400000
H      -42.10140000     -36.82640000     -69.27390000
C      -41.96410000     -32.09740000     -72.80180000
H      -41.19490000     -31.72950000     -72.11820000
H      -41.41350000     -32.39310000     -73.70260000
S      -43.88320000     -35.64250000     -67.96900000
S      -43.37460000     -30.92430000     -73.32080000
C      -45.51650000     -35.62230000     -68.87770000
H      -45.46790000     -36.31340000     -69.72650000
H      -46.34230000     -35.85010000     -68.17540000
C      -44.05610000     -30.42640000     -71.70920000
H      -44.52570000     -29.40700000     -71.85450000
H      -43.30590000     -30.21600000     -70.93020000
C      -44.93030000     -31.48760000     -71.03760000
H      -44.41130000     -32.40520000     -71.12640000
H      -45.06430000     -31.30570000     -69.98360000
C      -45.79560000     -34.16150000     -69.44110000
H      -44.94420000     -33.83350000     -70.15720000
H      -45.73950000     -33.44680000     -68.61020000
C      -47.02830000     -33.87740000     -70.22270000
C      -48.21970000     -34.53170000     -70.11020000
C      -47.12410000     -32.83480000     -71.27750000
H      -48.51080000     -35.42540000     -69.42110000
C      -48.35600000     -32.79500000     -71.89960000
C      -46.26440000     -31.76550000     -71.71490000
C      -46.87050000     -30.86860000     -72.56990000
S      -49.44300000     -34.02660000     -71.30950000
S      -48.49180000     -31.49320000     -73.05160000
H      -46.27330000     -30.10880000     -73.05290000
