40
Properties=species:S:1:pos:R:3 #=T CELL(abcABC):=T 1.889726e+02=T 90.00000=T Traj:=T positionsangstrom=T Step:=T 0=T Bead:=T pbc="F F F"
C      -48.16320000     -33.41520000     -70.69230000
C      -47.51140000     -34.04740000     -69.63740000
C      -46.52410000     -33.29810000     -68.92340000
C      -46.37470000     -31.95230000     -69.14470000
C      -46.98620000     -31.35850000     -70.29500000
C      -47.89300000     -32.08780000     -71.10240000
H      -48.91810000     -33.87410000     -71.23900000
H      -45.87780000     -33.79400000     -68.15830000
H      -46.72250000     -30.34600000     -70.63190000
H      -48.28070000     -31.70120000     -71.99150000
C      -45.26350000     -31.20700000     -68.37630000
H      -44.80460000     -31.86860000     -67.65050000
H      -45.71090000     -30.36090000     -67.80710000
C      -47.78660000     -35.49140000     -69.41480000
H      -47.41170000     -35.78710000     -68.49930000
H      -48.87420000     -35.72480000     -69.31060000
S      -43.94870000     -30.44250000     -69.36780000
S      -46.92890000     -36.47520000     -70.74320000
C      -42.69650000     -31.81780000     -69.45890000
H      -41.76910000     -31.42100000     -69.92500000
H      -42.25150000     -32.18790000     -68.52860000
C      -45.13400000     -36.17710000     -70.24980000
H      -44.95510000     -36.90970000     -69.49160000
H      -45.12490000     -35.19340000     -69.70320000
C      -44.17240000     -36.07730000     -71.40300000
H      -43.28600000     -35.62630000     -70.96100000
H      -43.86820000     -37.04930000     -71.84020000
C      -43.16880000     -33.04570000     -70.26900000
H      -44.05780000     -33.56650000     -69.76190000
H      -42.40810000     -33.89240000     -70.18050000
C      -43.57270000     -32.83920000     -71.70500000
C      -43.50100000     -31.58240000     -72.34290000
C      -44.22200000     -33.76510000     -72.51820000
H      -43.21190000     -30.67090000     -71.90110000
C      -44.67230000     -33.18790000     -73.72630000
C      -44.55990000     -35.18360000     -72.46700000
C      -45.23830000     -35.60240000     -73.53560000
S      -44.23520000     -31.63150000     -73.98050000
S      -45.46760000     -34.32560000     -74.83860000
H      -45.83230000     -36.54860000     -73.75210000
