40
Properties=species:S:1:pos:R:3 #=T CELL(abcABC):=T 1.889726e+02=T 90.00000=T Traj:=T positionsangstrom=T Step:=T 0=T Bead:=T pbc="F F F"
C      -43.01350000     -34.98270000     -72.95530000
C      -42.57170000     -34.14500000     -71.95960000
C      -42.81680000     -34.45540000     -70.61840000
C      -43.64890000     -35.52410000     -70.27990000
C      -44.11320000     -36.39630000     -71.34100000
C      -43.80360000     -36.12370000     -72.62590000
H      -42.88750000     -34.71420000     -73.95320000
H      -42.48100000     -33.82280000     -69.83040000
H      -44.60020000     -37.33030000     -71.03010000
H      -44.22660000     -36.76510000     -73.39940000
C      -43.90180000     -36.13700000     -68.93850000
H      -42.89910000     -36.41030000     -68.59580000
H      -44.55250000     -36.96850000     -69.08470000
C      -41.83060000     -32.93070000     -72.38640000
H      -41.43570000     -32.41530000     -71.43890000
H      -41.02180000     -33.08650000     -73.13540000
S      -44.63090000     -35.16720000     -67.56480000
S      -42.97190000     -31.70760000     -73.35510000
C      -46.18480000     -34.58580000     -68.29420000
H      -46.71310000     -35.28520000     -68.90960000
H      -46.94760000     -34.44560000     -67.41000000
C      -43.43620000     -30.59880000     -72.00150000
H      -43.55530000     -29.64950000     -72.44450000
H      -42.60480000     -30.51400000     -71.28840000
C      -44.64590000     -31.03310000     -71.15420000
H      -44.47790000     -31.90820000     -70.56390000
H      -44.83720000     -30.22910000     -70.45710000
C      -46.02660000     -33.32290000     -69.13490000
H      -45.01000000     -33.13490000     -69.55680000
H      -46.22070000     -32.41260000     -68.55250000
C      -47.05200000     -33.22120000     -70.29400000
C      -48.13980000     -34.02920000     -70.35880000
C      -46.89720000     -32.32760000     -71.38080000
H      -48.50080000     -34.62180000     -69.53390000
C      -47.90240000     -32.52170000     -72.32190000
C      -45.92480000     -31.37690000     -71.90230000
C      -46.25170000     -30.90010000     -73.08970000
S      -49.15080000     -33.63170000     -71.73570000
S      -47.76510000     -31.52330000     -73.75300000
H      -45.67910000     -30.18520000     -73.54760000
