40
Properties=species:S:1:pos:R:3 #=T CELL(abcABC):=T 1.889726e+02=T 90.00000=T Traj:=T positionsangstrom=T Step:=T 0=T Bead:=T pbc="F F F"
C      -43.10510000     -34.15370000     -73.15380000
C      -42.37460000     -33.52510000     -72.19220000
C      -42.27670000     -34.08100000     -70.90790000
C      -42.83740000     -35.34060000     -70.60860000
C      -43.69150000     -35.90910000     -71.58720000
C      -43.80270000     -35.34730000     -72.84660000
H      -43.18920000     -33.73170000     -74.16160000
H      -41.75680000     -33.53170000     -70.16130000
H      -44.29040000     -36.78870000     -71.28750000
H      -44.54240000     -35.70180000     -73.59390000
C      -42.67010000     -35.87700000     -69.19580000
H      -41.83860000     -35.38640000     -68.70700000
H      -42.50920000     -36.92040000     -69.24000000
C      -41.88050000     -32.15370000     -72.45780000
H      -41.48670000     -31.64620000     -71.57320000
H      -41.03950000     -32.24740000     -73.18510000
S      -44.15900000     -35.75740000     -67.98180000
S      -42.96810000     -30.99080000     -73.43140000
C      -45.65550000     -35.33640000     -68.97270000
H      -45.54380000     -35.82900000     -69.94440000
H      -46.53670000     -35.72760000     -68.47280000
C      -43.97140000     -30.36590000     -71.97190000
H      -44.56340000     -29.58920000     -72.38390000
H      -43.22280000     -29.95580000     -71.32160000
C      -44.86470000     -31.36530000     -71.22600000
H      -44.35580000     -32.36700000     -71.16530000
H      -44.94220000     -31.06160000     -70.14800000
C      -45.87840000     -33.86610000     -69.24870000
H      -44.94230000     -33.46760000     -69.72210000
H      -46.09150000     -33.34740000     -68.29460000
C      -47.04950000     -33.69620000     -70.15480000
C      -48.12470000     -34.52580000     -70.20340000
C      -47.15330000     -32.65590000     -71.18300000
H      -48.29050000     -35.46150000     -69.52820000
C      -48.40410000     -32.72360000     -71.81840000
C      -46.25590000     -31.68380000     -71.79150000
C      -46.90550000     -31.04340000     -72.84220000
S      -49.42810000     -34.03420000     -71.22770000
S      -48.52560000     -31.63850000     -73.16150000
H      -46.64150000     -30.15540000     -73.33850000
