40
Properties=species:S:1:pos:R:3 #=T CELL(abcABC):=T 1.889726e+02=T 90.00000=T Traj:=T positionsangstrom=T Step:=T 0=T Bead:=T pbc="F F F"
C      -43.20270000     -34.13280000     -73.03380000
C      -42.51040000     -33.54590000     -71.95590000
C      -42.35790000     -34.12580000     -70.69660000
C      -42.95270000     -35.33590000     -70.47600000
C      -43.70300000     -35.89340000     -71.51100000
C      -43.87760000     -35.36410000     -72.82450000
H      -43.22390000     -33.57020000     -73.90320000
H      -41.73810000     -33.66150000     -69.88780000
H      -44.18550000     -36.87740000     -71.34260000
H      -44.30830000     -35.93500000     -73.60130000
C      -42.85440000     -36.11560000     -69.21040000
H      -41.91860000     -35.86450000     -68.64670000
H      -42.89890000     -37.18630000     -69.38150000
C      -41.73820000     -32.24240000     -72.24050000
H      -41.53900000     -31.70640000     -71.26040000
H      -40.76200000     -32.34260000     -72.72010000
S      -44.19020000     -35.70310000     -67.93850000
S      -42.73080000     -31.11330000     -73.29720000
C      -45.76040000     -35.33490000     -68.95100000
H      -45.72420000     -35.91670000     -69.87780000
H      -46.57130000     -35.80620000     -68.37890000
C      -44.05940000     -30.36380000     -72.26890000
H      -44.78900000     -29.90640000     -72.98160000
H      -43.67340000     -29.47860000     -71.64270000
C      -44.85820000     -31.29690000     -71.39930000
H      -44.21750000     -32.12940000     -71.10750000
H      -45.03060000     -30.81400000     -70.41700000
C      -45.84210000     -33.89440000     -69.30740000
H      -44.94060000     -33.64180000     -69.70460000
H      -45.84950000     -33.26920000     -68.40770000
C      -47.07760000     -33.53970000     -70.15230000
C      -48.24120000     -34.24050000     -69.97690000
C      -47.08920000     -32.68710000     -71.33110000
H      -48.39690000     -34.86650000     -69.08020000
C      -48.28630000     -32.84800000     -72.03630000
C      -46.25680000     -31.67530000     -71.90450000
C      -46.83780000     -31.04310000     -72.98960000
S      -49.40510000     -33.90240000     -71.30100000
S      -48.51000000     -31.68210000     -73.31010000
H      -46.59580000     -30.23110000     -73.62710000
