40
Properties=species:S:1:pos:R:3 #=T CELL(abcABC):=T 1.889726e+02=T 90.00000=T Traj:=T positionsangstrom=T Step:=T 0=T Bead:=T pbc="F F F"
C      -43.09610000     -34.93210000     -72.97510000
C      -42.73490000     -34.09110000     -71.90720000
C      -43.00120000     -34.50650000     -70.60130000
C      -43.65600000     -35.73390000     -70.35370000
C      -43.86090000     -36.64300000     -71.43350000
C      -43.62470000     -36.22410000     -72.76360000
H      -42.81280000     -34.58070000     -73.86570000
H      -42.70410000     -33.93280000     -69.72710000
H      -44.30240000     -37.60360000     -71.11160000
H      -43.82570000     -36.81990000     -73.57980000
C      -43.78200000     -36.22690000     -68.92190000
H      -42.86450000     -36.58040000     -68.43630000
H      -44.32900000     -37.22310000     -68.82690000
C      -42.01540000     -32.76850000     -72.12400000
H      -41.69050000     -32.36990000     -71.18840000
H      -41.04740000     -32.92240000     -72.60300000
S      -44.48300000     -35.06460000     -67.60600000
S      -42.83890000     -31.67090000     -73.28830000
C      -46.12540000     -34.62810000     -68.34250000
H      -46.51970000     -35.41770000     -68.95770000
H      -46.78720000     -34.57110000     -67.40800000
C      -43.59070000     -30.39960000     -72.06150000
H      -44.10220000     -29.59520000     -72.63110000
H      -42.79920000     -29.93850000     -71.47220000
C      -44.61250000     -31.10520000     -71.24000000
H      -44.11760000     -31.91710000     -70.83670000
H      -44.88930000     -30.46830000     -70.35730000
C      -45.98120000     -33.31840000     -69.23830000
H      -45.10540000     -33.53120000     -69.75760000
H      -45.96140000     -32.37960000     -68.63240000
C      -47.09890000     -33.22540000     -70.25390000
C      -48.31910000     -33.87860000     -70.21550000
C      -46.84600000     -32.43230000     -71.43470000
H      -48.76190000     -34.60110000     -69.46920000
C      -47.95420000     -32.54150000     -72.32750000
C      -45.87390000     -31.44810000     -71.94270000
C      -46.30580000     -30.89580000     -73.12950000
S      -49.19480000     -33.64320000     -71.77280000
S      -47.89260000     -31.47460000     -73.65760000
H      -45.73240000     -30.44870000     -73.80970000
