40
Properties=species:S:1:pos:R:3 #=T CELL(abcABC):=T 1.889726e+02=T 90.00000=T Traj:=T positionsangstrom=T Step:=T 0=T Bead:=T pbc="F F F"
C      -43.29230000     -34.21860000     -72.89770000
C      -42.66750000     -33.56070000     -71.80230000
C      -42.52470000     -34.23000000     -70.60630000
C      -43.06980000     -35.45800000     -70.33020000
C      -43.68700000     -36.10710000     -71.38140000
C      -43.75720000     -35.52530000     -72.66430000
H      -43.29980000     -33.72840000     -73.85900000
H      -42.00190000     -33.61930000     -69.86580000
H      -44.03150000     -37.12370000     -71.29490000
H      -44.15130000     -36.14520000     -73.40760000
C      -43.01890000     -36.22170000     -69.03320000
H      -42.03660000     -35.99950000     -68.63800000
H      -43.13440000     -37.29670000     -69.31960000
C      -41.90370000     -32.26590000     -72.04270000
H      -41.88430000     -31.76430000     -71.09050000
H      -40.91430000     -32.58340000     -72.32200000
S      -44.25680000     -35.63230000     -67.80890000
S      -42.57780000     -31.05620000     -73.29060000
C      -45.72780000     -35.17010000     -68.86520000
H      -45.82720000     -35.81960000     -69.70860000
H      -46.62730000     -35.35210000     -68.17080000
C      -43.93350000     -30.24750000     -72.21090000
H      -44.45090000     -29.53530000     -72.85790000
H      -43.51680000     -29.68930000     -71.45050000
C      -44.84890000     -31.29380000     -71.52750000
H      -44.33010000     -32.15380000     -71.15540000
H      -45.17660000     -30.74820000     -70.62630000
C      -45.85420000     -33.79220000     -69.39040000
H      -44.94600000     -33.48390000     -69.90100000
H      -46.01190000     -33.05960000     -68.49970000
C      -47.04110000     -33.52640000     -70.30010000
C      -48.17750000     -34.25100000     -70.16850000
C      -47.04940000     -32.69460000     -71.49170000
H      -48.35360000     -34.96790000     -69.43530000
C      -48.32050000     -32.77940000     -72.11510000
C      -46.18050000     -31.74510000     -72.15020000
C      -46.72990000     -31.24940000     -73.29760000
S      -49.44420000     -33.73180000     -71.21180000
S      -48.43600000     -31.71470000     -73.53940000
H      -46.21070000     -30.76230000     -74.13270000
