40
Properties=species:S:1:pos:R:3 #=T CELL(abcABC):=T 1.889726e+02=T 90.00000=T Traj:=T positionsangstrom=T Step:=T 0=T Bead:=T pbc="F F F"
C      -44.32670000     -34.75260000     -72.92050000
C      -43.20330000     -34.61770000     -72.03530000
C      -43.23570000     -35.11680000     -70.71330000
C      -44.38050000     -35.75990000     -70.21960000
C      -45.47620000     -35.82210000     -71.09700000
C      -45.48290000     -35.25370000     -72.36690000
H      -44.22710000     -34.53870000     -73.98460000
H      -42.30730000     -35.12070000     -70.14500000
H      -46.44790000     -36.23830000     -70.76550000
H      -46.36650000     -35.35900000     -72.91990000
C      -44.43940000     -36.32340000     -68.78800000
H      -43.37520000     -36.57090000     -68.47020000
H      -45.07150000     -37.16880000     -68.66990000
C      -41.88590000     -33.90210000     -72.42090000
H      -41.30280000     -33.74150000     -71.55870000
H      -41.29710000     -34.48020000     -73.10640000
S      -44.98750000     -35.05140000     -67.54000000
S      -42.05630000     -32.30120000     -73.30910000
C      -46.49580000     -34.32090000     -68.45150000
H      -46.79950000     -35.05100000     -69.18150000
H      -47.37860000     -34.29380000     -67.76150000
C      -42.65150000     -31.24130000     -71.92080000
H      -42.85940000     -30.25510000     -72.38130000
H      -41.93390000     -31.18640000     -71.12160000
C      -43.91030000     -31.71690000     -71.21830000
H      -43.69910000     -32.74250000     -70.82160000
H      -44.03800000     -31.15220000     -70.26940000
C      -46.20660000     -32.87070000     -68.91440000
H      -45.17300000     -32.85400000     -69.24160000
H      -46.34600000     -32.06570000     -68.15070000
C      -47.01380000     -32.66120000     -70.15330000
C      -48.34380000     -32.94980000     -70.19280000
C      -46.52240000     -32.19980000     -71.41650000
H      -48.96540000     -33.38240000     -69.36770000
C      -47.54440000     -32.08510000     -72.34390000
C      -45.13040000     -31.83220000     -72.00390000
C      -45.29740000     -31.57350000     -73.40810000
S      -49.09480000     -32.71920000     -71.77820000
S      -47.00300000     -31.70530000     -73.97180000
H      -44.52940000     -31.11650000     -74.14800000
