40
Properties=species:S:1:pos:R:3 #=T CELL(abcABC):=T 1.889726e+02=T 90.00000=T Traj:=T positionsangstrom=T Step:=T 0=T Bead:=T pbc="F F F"
C      -47.64510000     -33.03440000     -72.06690000
C      -47.96090000     -33.93970000     -71.07100000
C      -47.53890000     -33.71970000     -69.70990000
C      -46.71970000     -32.63210000     -69.39260000
C      -46.32460000     -31.74790000     -70.44650000
C      -46.85040000     -31.90650000     -71.75800000
H      -47.90400000     -33.17350000     -73.14710000
H      -47.94960000     -34.27410000     -68.91230000
H      -45.69070000     -30.81830000     -70.23920000
H      -46.52670000     -31.31760000     -72.63180000
C      -45.96560000     -32.39300000     -68.01640000
H      -45.71490000     -33.28000000     -67.42380000
H      -46.55450000     -31.69230000     -67.36460000
C      -48.64190000     -35.19970000     -71.30120000
H      -49.29990000     -35.39230000     -70.50400000
H      -49.23990000     -35.19930000     -72.18600000
S      -44.40840000     -31.49080000     -68.12070000
S      -47.43300000     -36.52920000     -71.52620000
C      -43.07760000     -32.70810000     -68.52050000
H      -42.07730000     -32.26310000     -68.61750000
H      -42.92620000     -33.41690000     -67.61100000
C      -45.86620000     -36.00910000     -70.68160000
H      -45.59410000     -36.75140000     -70.06420000
H      -46.11080000     -35.05470000     -70.13810000
C      -44.69750000     -35.87970000     -71.60760000
H      -43.68850000     -35.67220000     -71.10150000
H      -44.47050000     -36.83410000     -72.11590000
C      -43.42440000     -33.63090000     -69.73120000
H      -44.41920000     -33.91510000     -69.58310000
H      -42.79610000     -34.44910000     -69.83650000
C      -43.42030000     -32.88850000     -71.09800000
C      -42.88560000     -31.66520000     -71.34870000
C      -44.16050000     -33.42100000     -72.22630000
H      -42.42700000     -30.95990000     -70.72780000
C      -44.09690000     -32.59610000     -73.29940000
C      -44.77740000     -34.69900000     -72.61960000
C      -45.12670000     -34.81230000     -73.94950000
S      -43.03960000     -31.23560000     -73.04810000
S      -44.86830000     -33.22630000     -74.72970000
H      -45.68770000     -35.65630000     -74.32820000
