40
Properties=species:S:1:pos:R:3 #=T CELL(abcABC):=T 1.889726e+02=T 90.00000=T Traj:=T positionsangstrom=T Step:=T 0=T Bead:=T pbc="F F F"
C      -44.43780000     -34.69680000     -72.85280000
C      -43.24920000     -34.53350000     -72.11000000
C      -43.17760000     -34.95100000     -70.76580000
C      -44.20920000     -35.70450000     -70.19600000
C      -45.38640000     -35.90640000     -70.96300000
C      -45.46550000     -35.38010000     -72.22400000
H      -44.64270000     -34.16100000     -73.80500000
H      -42.36610000     -34.67980000     -70.14760000
H      -46.25640000     -36.41600000     -70.56210000
H      -46.42550000     -35.50350000     -72.73680000
C      -44.22190000     -36.20670000     -68.72620000
H      -43.19910000     -36.49780000     -68.31870000
H      -44.77020000     -37.11170000     -68.64610000
C      -42.06510000     -33.98630000     -72.75920000
H      -41.19620000     -34.19150000     -72.03650000
H      -41.85790000     -34.49380000     -73.72960000
S      -44.84670000     -34.97630000     -67.48230000
S      -42.14670000     -32.22160000     -73.27150000
C      -46.40280000     -34.30040000     -68.10760000
H      -47.00740000     -35.03660000     -68.57620000
H      -46.92830000     -33.99750000     -67.21130000
C      -42.73720000     -31.15110000     -71.82010000
H      -42.89790000     -30.13500000     -72.35470000
H      -41.93200000     -31.04900000     -71.15620000
C      -44.04100000     -31.57700000     -71.20370000
H      -43.86380000     -32.49100000     -70.67580000
H      -44.22530000     -30.75560000     -70.48930000
C      -46.25610000     -33.02780000     -68.90140000
H      -45.20850000     -32.95520000     -69.10990000
H      -46.53240000     -32.22160000     -68.13940000
C      -47.04110000     -32.79300000     -70.22860000
C      -48.36160000     -32.93110000     -70.23630000
C      -46.55050000     -32.45100000     -71.54560000
H      -48.99990000     -33.13170000     -69.40200000
C      -47.52050000     -32.42290000     -72.53060000
C      -45.24960000     -31.83120000     -72.02370000
C      -45.36000000     -31.41560000     -73.36920000
S      -49.11410000     -32.77070000     -71.84830000
S      -46.93810000     -31.75430000     -74.03070000
H      -44.64490000     -31.03820000     -74.15050000
