40
Properties=species:S:1:pos:R:3 #=T CELL(abcABC):=T 1.889726e+02=T 90.00000=T Traj:=T positionsangstrom=T Step:=T 0=T Bead:=T pbc="F F F"
C      -46.47460000     -29.54720000     -71.27630000
C      -46.98470000     -30.42380000     -72.22420000
C      -47.87330000     -31.39430000     -71.78730000
C      -48.10240000     -31.50860000     -70.39820000
C      -47.68090000     -30.54840000     -69.46040000
C      -46.82980000     -29.46460000     -69.91300000
H      -45.83670000     -28.72050000     -71.70460000
H      -48.25150000     -32.26470000     -72.41830000
H      -48.01380000     -30.68050000     -68.45070000
H      -46.46760000     -28.65530000     -69.25280000
C      -49.04950000     -32.61660000     -69.90840000
H      -50.15060000     -32.35890000     -70.18880000
H      -49.03030000     -32.59380000     -68.76210000
C      -46.54600000     -30.39810000     -73.65720000
H      -47.25180000     -29.87110000     -74.29900000
H      -45.64430000     -29.79860000     -73.82350000
S      -48.50450000     -34.35640000     -70.39110000
S      -46.37970000     -32.06480000     -74.48750000
C      -46.72810000     -34.47140000     -70.01100000
H      -46.20840000     -33.57850000     -70.46790000
H      -46.50770000     -34.46180000     -68.85660000
C      -44.67030000     -32.71750000     -73.91910000
H      -43.84480000     -32.15880000     -74.28770000
H      -44.55820000     -33.67440000     -74.40920000
C      -44.72560000     -32.96950000     -72.43030000
H      -44.70910000     -32.02950000     -71.85400000
H      -45.74150000     -33.40330000     -72.21520000
C      -46.13620000     -35.73120000     -70.60040000
H      -46.33590000     -35.66040000     -71.65490000
H      -46.53840000     -36.61510000     -70.15970000
C      -44.61330000     -35.70850000     -70.46000000
C      -44.11180000     -36.63250000     -69.57210000
C      -43.57630000     -34.94090000     -71.07460000
H      -44.80560000     -37.34200000     -69.05590000
C      -42.24610000     -35.39270000     -70.73990000
C      -43.53560000     -33.79870000     -71.91990000
C      -42.24850000     -33.39060000     -72.19380000
S      -42.34680000     -36.56400000     -69.48220000
S      -41.01020000     -34.44270000     -71.47610000
H      -41.97400000     -32.69560000     -72.99650000
