40
Properties=species:S:1:pos:R:3 #=T CELL(abcABC):=T 1.889726e+02=T 90.00000=T Traj:=T positionsangstrom=T Step:=T 0=T Bead:=T pbc="F F F"
C      -44.54090000     -35.10920000     -72.66170000
C      -43.52110000     -35.18420000     -71.73440000
C      -43.74530000     -35.75040000     -70.43860000
C      -45.02560000     -36.10540000     -70.04590000
C      -46.07420000     -35.93300000     -71.01570000
C      -45.82540000     -35.57780000     -72.32530000
H      -44.45630000     -34.53790000     -73.54680000
H      -42.83820000     -35.86420000     -69.84570000
H      -47.07750000     -36.17890000     -70.65620000
H      -46.67320000     -35.60590000     -72.94590000
C      -45.40120000     -36.47120000     -68.60630000
H      -44.61480000     -37.10580000     -68.19780000
H      -46.45800000     -36.74740000     -68.55500000
C      -42.14900000     -34.72990000     -72.16290000
H      -41.47610000     -34.58580000     -71.32260000
H      -41.69720000     -35.52360000     -72.84520000
S      -45.22840000     -34.78340000     -67.66890000
S      -42.13660000     -33.13760000     -73.15230000
C      -46.58810000     -33.78800000     -68.53870000
H      -46.79980000     -34.41180000     -69.44060000
H      -47.44700000     -33.72800000     -67.85630000
C      -42.23610000     -31.88930000     -71.77790000
H      -41.73090000     -30.95210000     -72.07250000
H      -41.60760000     -32.33680000     -71.00970000
C      -43.59400000     -31.75000000     -71.06540000
H      -43.77750000     -32.62340000     -70.48830000
H      -43.48210000     -30.96210000     -70.34520000
C      -46.27330000     -32.41470000     -69.00750000
H      -45.20630000     -32.35730000     -69.16340000
H      -46.52670000     -31.67910000     -68.30680000
C      -46.94070000     -32.19490000     -70.29410000
C      -48.24450000     -32.48400000     -70.55080000
C      -46.24450000     -31.83840000     -71.49190000
H      -48.99180000     -32.81710000     -69.72350000
C      -47.16450000     -31.70050000     -72.60760000
C      -44.84490000     -31.51290000     -71.90250000
C      -44.78960000     -31.26420000     -73.23120000
S      -48.76510000     -32.28420000     -72.19210000
S      -46.30590000     -31.25080000     -74.06540000
H      -43.97420000     -31.19750000     -73.90830000
