40
Properties=species:S:1:pos:R:3 #=T CELL(abcABC):=T 1.889726e+02=T 90.00000=T Traj:=T positionsangstrom=T Step:=T 0=T Bead:=T pbc="F F F"
C      -44.01560000     -35.40910000     -73.13710000
C      -43.25340000     -34.94050000     -72.04300000
C      -43.66750000     -35.21490000     -70.76210000
C      -44.94690000     -35.81640000     -70.59610000
C      -45.72610000     -36.19450000     -71.71550000
C      -45.18130000     -36.11570000     -72.95290000
H      -43.61040000     -35.22350000     -74.12740000
H      -43.06870000     -34.91800000     -69.95100000
H      -46.75270000     -36.54990000     -71.54330000
H      -45.68970000     -36.47140000     -73.86050000
C      -45.50650000     -36.31120000     -69.30390000
H      -45.16630000     -37.33730000     -69.13790000
H      -46.62190000     -36.54870000     -69.35760000
C      -41.93050000     -34.25730000     -72.24380000
H      -41.45230000     -34.01280000     -71.31980000
H      -41.23560000     -34.98250000     -72.77610000
S      -45.41560000     -35.38470000     -67.67450000
S      -42.12390000     -32.72560000     -73.26450000
C      -46.64480000     -34.02980000     -67.96120000
H      -47.60780000     -34.38780000     -68.42270000
H      -46.93200000     -33.65100000     -67.00630000
C      -42.43850000     -31.43480000     -71.94560000
H      -42.37220000     -30.45730000     -72.55900000
H      -41.57280000     -31.51360000     -71.29110000
C      -43.64210000     -31.47990000     -71.09530000
H      -43.52080000     -32.31100000     -70.38460000
H      -43.55180000     -30.59290000     -70.44040000
C      -46.02920000     -32.74170000     -68.75550000
H      -44.98250000     -33.06740000     -69.11590000
H      -45.83910000     -31.89220000     -68.03410000
C      -46.82940000     -32.30490000     -69.99090000
C      -48.19120000     -32.38810000     -69.99920000
C      -46.29340000     -31.89390000     -71.24680000
H      -48.84520000     -32.66390000     -69.30990000
C      -47.25010000     -31.74140000     -72.23010000
C      -44.98170000     -31.55990000     -71.84110000
C      -45.10410000     -31.21880000     -73.16180000
S      -48.84670000     -32.20380000     -71.62290000
S      -46.69100000     -31.44000000     -73.87470000
H      -44.32980000     -30.83680000     -73.86530000
