40
Properties=species:S:1:pos:R:3 #=T CELL(abcABC):=T 1.889726e+02=T 90.00000=T Traj:=T positionsangstrom=T Step:=T 0=T Bead:=T pbc="F F F"
C      -43.81270000     -35.31580000     -73.04560000
C      -43.17420000     -34.89180000     -71.83530000
C      -43.77960000     -35.29450000     -70.63970000
C      -44.97090000     -36.06470000     -70.64980000
C      -45.68350000     -36.29180000     -71.84150000
C      -45.06390000     -35.95440000     -73.01350000
H      -43.37610000     -35.03600000     -73.93360000
H      -43.29380000     -34.99730000     -69.65320000
H      -46.64510000     -36.85460000     -71.83980000
H      -45.59950000     -36.17070000     -73.90810000
C      -45.58920000     -36.44900000     -69.35100000
H      -45.07770000     -37.33150000     -68.97810000
H      -46.66330000     -36.60950000     -69.53050000
C      -41.96130000     -34.00330000     -71.95450000
H      -41.58690000     -33.50640000     -70.99790000
H      -41.10660000     -34.58720000     -72.28430000
S      -45.27440000     -35.35230000     -67.93610000
S      -42.32320000     -32.65560000     -73.15920000
C      -46.42590000     -34.00150000     -68.18360000
H      -47.17840000     -34.41210000     -68.86360000
H      -46.91840000     -33.80920000     -67.19660000
C      -42.48620000     -31.21310000     -71.97850000
H      -42.63690000     -30.29890000     -72.58920000
H      -41.59600000     -31.06950000     -71.37080000
C      -43.70100000     -31.51080000     -71.12410000
H      -43.47980000     -32.41440000     -70.56850000
H      -43.87850000     -30.69040000     -70.41510000
C      -45.83410000     -32.74590000     -68.84310000
H      -44.86360000     -32.91430000     -69.26850000
H      -45.82380000     -31.97310000     -68.16770000
C      -46.72790000     -32.37420000     -70.00530000
C      -48.05690000     -32.49420000     -69.91740000
C      -46.31660000     -31.99700000     -71.33070000
H      -48.51210000     -32.87090000     -69.09400000
C      -47.35680000     -31.91590000     -72.25020000
C      -44.98600000     -31.65480000     -71.94700000
C      -45.20240000     -31.22670000     -73.22300000
S      -48.86560000     -32.23570000     -71.44270000
S      -46.81990000     -31.41370000     -73.84120000
H      -44.35810000     -30.81930000     -73.86160000
