40
Properties=species:S:1:pos:R:3 #=T CELL(abcABC):=T 1.889726e+02=T 90.00000=T Traj:=T positionsangstrom=T Step:=T 0=T Bead:=T pbc="F F F"
C      -44.61920000     -35.18370000     -72.64900000
C      -43.57100000     -35.30620000     -71.79250000
C      -43.82130000     -35.52840000     -70.44440000
C      -45.07450000     -35.83710000     -69.95480000
C      -46.14730000     -35.92520000     -70.87290000
C      -45.94400000     -35.45180000     -72.17100000
H      -44.47550000     -34.76510000     -73.62420000
H      -42.97730000     -35.48700000     -69.76660000
H      -47.19980000     -36.18790000     -70.59240000
H      -46.72150000     -35.43560000     -72.87210000
C      -45.21410000     -36.19640000     -68.51310000
H      -44.17460000     -36.39170000     -68.18580000
H      -45.91710000     -37.02200000     -68.36890000
C      -42.13780000     -34.97080000     -72.27710000
H      -41.42110000     -35.01350000     -71.48680000
H      -41.73930000     -35.68080000     -72.98790000
S      -45.78880000     -34.85350000     -67.34370000
S      -41.97150000     -33.23770000     -73.06220000
C      -46.81620000     -33.80900000     -68.41100000
H      -47.51020000     -34.38760000     -69.05910000
H      -47.39850000     -33.22160000     -67.63820000
C      -42.24420000     -32.05530000     -71.68810000
H      -42.19430000     -31.09480000     -72.21110000
H      -41.50510000     -32.15200000     -70.91950000
C      -43.67390000     -32.04920000     -71.11310000
H      -43.80020000     -33.06290000     -70.77400000
H      -43.74760000     -31.29910000     -70.29480000
C      -45.92640000     -32.92080000     -69.33080000
H      -45.13430000     -33.55930000     -69.63200000
H      -45.38330000     -32.08390000     -68.90930000
C      -46.78260000     -32.35370000     -70.47530000
C      -48.18800000     -32.28580000     -70.52620000
C      -46.14610000     -31.88860000     -71.66730000
H      -48.91910000     -32.63690000     -69.84140000
C      -46.98710000     -31.62550000     -72.71740000
C      -44.74020000     -31.74820000     -72.11240000
C      -44.68840000     -31.35590000     -73.42930000
S      -48.70140000     -31.81370000     -72.20820000
S      -46.18330000     -31.20900000     -74.18020000
H      -43.69350000     -31.16050000     -73.92250000
