40
Properties=species:S:1:pos:R:3 #=T CELL(abcABC):=T 1.889726e+02=T 90.00000=T Traj:=T positionsangstrom=T Step:=T 0=T Bead:=T pbc="F F F"
C      -46.35900000     -37.55320000     -71.63540000
C      -46.39420000     -36.63420000     -72.69350000
C      -45.11620000     -36.15730000     -73.13390000
C      -43.86010000     -36.58250000     -72.57050000
C      -43.93990000     -37.65680000     -71.64180000
C      -45.18250000     -38.08900000     -71.14020000
H      -47.33430000     -37.84580000     -71.24750000
H      -45.07780000     -35.40980000     -73.88000000
H      -42.99770000     -38.02710000     -71.21420000
H      -45.28120000     -38.96130000     -70.55440000
C      -42.59890000     -35.93640000     -73.01560000
H      -42.69690000     -35.50750000     -74.09630000
H      -41.80310000     -36.67280000     -73.03350000
C      -47.66340000     -36.11450000     -73.33150000
H      -47.89310000     -36.63030000     -74.28970000
H      -48.47360000     -36.44030000     -72.62230000
S      -41.95060000     -34.49690000     -71.97810000
S      -47.63390000     -34.34400000     -73.69100000
C      -43.31520000     -33.34600000     -71.66170000
H      -42.88850000     -32.35240000     -71.75660000
H      -43.87770000     -33.36730000     -72.57460000
C      -47.42030000     -33.30040000     -72.18940000
H      -46.92470000     -33.93560000     -71.42630000
H      -48.44450000     -32.96830000     -71.89810000
C      -46.49040000     -32.08700000     -72.57730000
H      -45.54290000     -32.38040000     -73.01420000
H      -47.04120000     -31.64090000     -73.39380000
C      -44.02780000     -33.51230000     -70.34640000
H      -43.51590000     -34.11210000     -69.59540000
H      -45.04870000     -33.99680000     -70.48490000
C      -44.51180000     -32.18190000     -69.70300000
C      -44.08970000     -31.78410000     -68.44690000
C      -45.49490000     -31.24910000     -70.27350000
H      -43.28940000     -32.30780000     -67.91240000
C      -45.68760000     -30.18480000     -69.40530000
C      -46.31890000     -31.13160000     -71.45460000
C      -47.10810000     -30.00630000     -71.45770000
S      -44.82180000     -30.31460000     -67.89090000
S      -46.78710000     -28.96440000     -70.03360000
H      -47.92430000     -29.73290000     -72.08090000
