40
Properties=species:S:1:pos:R:3 #=T CELL(abcABC):=T 1.889726e+02=T 90.00000=T Traj:=T positionsangstrom=T Step:=T 0=T Bead:=T pbc="F F F"
C      -44.56580000     -35.07360000     -72.36670000
C      -43.50450000     -35.14680000     -71.44990000
C      -43.85560000     -35.58900000     -70.20520000
C      -45.15340000     -35.92430000     -69.86090000
C      -46.17300000     -35.95830000     -70.84380000
C      -45.82670000     -35.55280000     -72.09230000
H      -44.33100000     -34.65140000     -73.36080000
H      -43.05180000     -35.69530000     -69.43250000
H      -47.06880000     -36.51710000     -70.69840000
H      -46.60640000     -35.49890000     -72.88300000
C      -45.47870000     -36.42820000     -68.49630000
H      -44.70640000     -36.98830000     -68.06410000
H      -46.43500000     -36.99660000     -68.58920000
C      -42.10800000     -34.83970000     -71.73120000
H      -41.50110000     -34.47770000     -70.87400000
H      -41.55820000     -35.68740000     -72.04630000
S      -46.00620000     -35.04660000     -67.42970000
S      -41.93210000     -33.54470000     -73.08510000
C      -46.97190000     -33.98850000     -68.61320000
H      -47.49860000     -34.72300000     -69.28520000
H      -47.64890000     -33.37060000     -68.05320000
C      -42.09060000     -32.03070000     -72.14990000
H      -42.01810000     -31.14740000     -72.82320000
H      -41.29940000     -31.79680000     -71.44530000
C      -43.44440000     -31.94810000     -71.40640000
H      -43.57780000     -32.86650000     -70.77700000
H      -43.35710000     -31.21180000     -70.57920000
C      -46.13390000     -32.89910000     -69.25840000
H      -45.12260000     -33.34190000     -69.50500000
H      -45.96950000     -32.13160000     -68.53000000
C      -46.75220000     -32.33620000     -70.51480000
C      -48.12730000     -32.31350000     -70.74690000
C      -46.04340000     -31.89980000     -71.75890000
H      -48.88290000     -32.53800000     -69.99610000
C      -46.97590000     -31.50420000     -72.74390000
C      -44.70800000     -31.62210000     -72.13610000
C      -44.65520000     -31.10030000     -73.40150000
S      -48.59360000     -31.78990000     -72.32420000
S      -46.15490000     -30.86540000     -74.10320000
H      -43.78090000     -30.78800000     -73.84340000
