40
Properties=species:S:1:pos:R:3 #=T CELL(abcABC):=T 1.889726e+02=T 90.00000=T Traj:=T positionsangstrom=T Step:=T 0=T Bead:=T pbc="F F F"
C      -46.53010000     -37.68540000     -72.09240000
C      -46.51490000     -36.45040000     -72.76880000
C      -45.30930000     -35.83880000     -73.04440000
C      -44.08510000     -36.43520000     -72.73680000
C      -44.11400000     -37.60890000     -71.92070000
C      -45.31410000     -38.27960000     -71.65500000
H      -47.46650000     -38.17150000     -71.81880000
H      -45.28540000     -34.96350000     -73.66810000
H      -43.16140000     -37.87680000     -71.45310000
H      -45.21270000     -39.21710000     -71.13790000
C      -42.75250000     -35.73810000     -72.97600000
H      -42.79670000     -34.92350000     -73.72760000
H      -41.98610000     -36.45870000     -73.40890000
C      -47.87330000     -35.88180000     -73.26870000
H      -48.16130000     -36.55490000     -74.06330000
H      -48.68680000     -36.05380000     -72.51130000
S      -41.81410000     -35.07260000     -71.36890000
S      -47.86180000     -34.14550000     -73.72160000
C      -42.64480000     -33.39760000     -71.04590000
H      -41.96290000     -32.94090000     -70.31010000
H      -42.57390000     -32.80200000     -71.95040000
C      -47.21960000     -33.27170000     -72.27010000
H      -46.74110000     -33.96390000     -71.55700000
H      -48.10850000     -32.92380000     -71.71530000
C      -46.34300000     -32.09280000     -72.61960000
H      -45.26760000     -32.34600000     -72.91050000
H      -46.67220000     -31.54900000     -73.51720000
C      -44.05760000     -33.49130000     -70.48970000
H      -44.07640000     -34.26650000     -69.70100000
H      -44.75200000     -33.67570000     -71.30480000
C      -44.47140000     -32.19880000     -69.79940000
C      -43.89860000     -31.74230000     -68.59930000
C      -45.40170000     -31.18620000     -70.30730000
H      -43.12520000     -32.38040000     -68.15710000
C      -45.64470000     -30.16540000     -69.41190000
C      -46.33070000     -31.15850000     -71.43210000
C      -47.11110000     -30.03820000     -71.44470000
S      -44.67330000     -30.21240000     -67.98840000
S      -46.89890000     -29.05280000     -70.06450000
H      -47.82330000     -29.74150000     -72.12930000
