40
Properties=species:S:1:pos:R:3 #=T CELL(abcABC):=T 1.889726e+02=T 90.00000=T Traj:=T positionsangstrom=T Step:=T 0=T Bead:=T pbc="F F F"
C      -44.72280000     -35.28970000     -72.71980000
C      -43.59680000     -35.20380000     -71.89510000
C      -43.76520000     -35.46810000     -70.52510000
C      -45.04580000     -35.78930000     -69.93500000
C      -46.10370000     -35.92800000     -70.81400000
C      -45.99240000     -35.66900000     -72.18570000
H      -44.69490000     -35.10020000     -73.78590000
H      -42.87430000     -35.38900000     -69.92990000
H      -47.00980000     -36.30290000     -70.36310000
H      -46.90530000     -35.56530000     -72.81590000
C      -45.21670000     -36.17530000     -68.46460000
H      -44.44730000     -36.79050000     -68.00460000
H      -46.12630000     -36.78440000     -68.42650000
C      -42.15940000     -34.86090000     -72.41870000
H      -41.40930000     -35.04770000     -71.58530000
H      -41.88660000     -35.43440000     -73.31110000
S      -45.53060000     -34.80030000     -67.36010000
S      -41.84460000     -33.15520000     -73.16050000
C      -46.86480000     -33.86060000     -68.17220000
H      -47.56610000     -34.45330000     -68.73900000
H      -47.31260000     -33.37140000     -67.30930000
C      -42.20800000     -32.02730000     -71.72580000
H      -41.63320000     -31.08290000     -71.92200000
H      -41.58450000     -32.39170000     -70.91110000
C      -43.61650000     -31.93800000     -71.15060000
H      -43.75840000     -32.81240000     -70.46610000
H      -43.67850000     -31.12740000     -70.43230000
C      -46.28900000     -32.72830000     -69.10960000
H      -45.25300000     -32.92860000     -69.34340000
H      -46.33390000     -31.80710000     -68.47810000
C      -46.96560000     -32.51990000     -70.48010000
C      -48.32470000     -32.37630000     -70.67490000
C      -46.17610000     -32.09130000     -71.63290000
H      -49.09530000     -32.60260000     -70.02680000
C      -47.00310000     -31.71410000     -72.65850000
C      -44.75740000     -31.88960000     -72.04000000
C      -44.66420000     -31.52770000     -73.35920000
S      -48.70700000     -31.76780000     -72.27340000
S      -46.24020000     -31.19670000     -74.11710000
H      -43.66910000     -31.07540000     -73.71650000
