40
Properties=species:S:1:pos:R:3 #=T CELL(abcABC):=T 1.889726e+02=T 90.00000=T Traj:=T positionsangstrom=T Step:=T 0=T Bead:=T pbc="F F F"
C      -44.71980000     -36.65850000     -72.76360000
C      -43.78270000     -36.29510000     -71.77990000
C      -44.11620000     -36.38380000     -70.44760000
C      -45.37620000     -36.71320000     -70.01730000
C      -46.32080000     -37.12070000     -70.99200000
C      -45.98000000     -37.09350000     -72.33790000
H      -44.53120000     -36.42940000     -73.81790000
H      -43.39580000     -36.24180000     -69.67420000
H      -47.24470000     -37.61220000     -70.75070000
H      -46.68340000     -37.35350000     -73.09180000
C      -45.89720000     -36.65260000     -68.62240000
H      -45.10550000     -37.12670000     -68.01130000
H      -46.84060000     -37.16870000     -68.54610000
C      -42.39440000     -35.84230000     -72.20040000
H      -41.73510000     -35.69790000     -71.30600000
H      -41.81790000     -36.55780000     -72.82470000
S      -45.96500000     -34.90870000     -68.07280000
S      -42.35280000     -34.17690000     -73.07050000
C      -46.83850000     -34.05700000     -69.39280000
H      -46.49650000     -34.48880000     -70.37350000
H      -47.93100000     -34.24440000     -69.41840000
C      -42.46420000     -33.04490000     -71.61420000
H      -41.83930000     -32.15810000     -71.94870000
H      -41.88120000     -33.52360000     -70.80700000
C      -43.89340000     -32.76770000     -71.13920000
H      -44.47710000     -33.68240000     -71.06900000
H      -43.94370000     -32.46120000     -70.05710000
C      -46.66850000     -32.48370000     -69.19600000
H      -45.63830000     -32.24080000     -68.73510000
H      -47.24990000     -32.13750000     -68.28110000
C      -46.95830000     -31.51580000     -70.40520000
C      -48.16880000     -30.95730000     -70.62820000
C      -45.98130000     -31.17810000     -71.44630000
H      -49.07610000     -31.03030000     -69.95260000
C      -46.40710000     -30.25160000     -72.35830000
C      -44.69590000     -31.65720000     -71.87560000
C      -44.16290000     -31.03660000     -72.97590000
S      -48.12030000     -29.89980000     -72.01430000
S      -45.25610000     -29.83390000     -73.58820000
H      -43.20260000     -31.30650000     -73.39860000
