40
Properties=species:S:1:pos:R:3 #=T CELL(abcABC):=T 1.889726e+02=T 90.00000=T Traj:=T positionsangstrom=T Step:=T 0=T Bead:=T pbc="F F F"
C      -47.30740000     -33.35170000     -73.11240000
C      -47.41550000     -34.64720000     -72.59700000
C      -47.69570000     -34.85790000     -71.25310000
C      -47.85160000     -33.78860000     -70.30610000
C      -47.85410000     -32.50050000     -70.84600000
C      -47.60410000     -32.29720000     -72.18400000
H      -47.14020000     -33.14410000     -74.16870000
H      -47.95030000     -35.91110000     -70.96390000
H      -48.14250000     -31.72800000     -70.10490000
H      -47.53660000     -31.26890000     -72.46530000
C      -47.93800000     -34.09290000     -68.81870000
H      -47.68000000     -35.20210000     -68.74540000
H      -48.88700000     -33.96560000     -68.45480000
C      -47.07700000     -35.96180000     -73.42300000
H      -47.09860000     -36.78540000     -72.75310000
H      -47.76970000     -36.22010000     -74.22810000
S      -46.89480000     -32.94830000     -67.77740000
S      -45.37940000     -35.73820000     -73.98670000
C      -45.27430000     -33.78570000     -67.73020000
H      -44.54290000     -33.08660000     -67.25330000
H      -45.27020000     -34.67980000     -67.07200000
C      -44.54500000     -36.06000000     -72.29340000
H      -44.36520000     -37.17100000     -72.21740000
H      -45.09850000     -35.85850000     -71.37240000
C      -43.18220000     -35.36100000     -72.03770000
H      -42.86910000     -35.81440000     -71.07270000
H      -42.35620000     -35.68650000     -72.67030000
C      -44.79830000     -34.03880000     -69.17150000
H      -45.35690000     -34.50900000     -69.90070000
H      -43.91000000     -34.73950000     -69.04640000
C      -44.29530000     -32.83280000     -69.94470000
C      -44.35400000     -31.54780000     -69.48820000
C      -43.70170000     -32.88930000     -71.29640000
H      -44.61300000     -31.18740000     -68.47650000
C      -43.55550000     -31.57330000     -71.84190000
C      -43.25690000     -33.84560000     -72.23680000
C      -42.84680000     -33.36090000     -73.46160000
S      -43.90290000     -30.37660000     -70.70180000
S      -42.93270000     -31.61480000     -73.48830000
H      -42.47790000     -33.96690000     -74.24370000
