40
Properties=species:S:1:pos:R:3 #=T CELL(abcABC):=T 1.889726e+02=T 90.00000=T Traj:=T positionsangstrom=T Step:=T 0=T Bead:=T pbc="F F F"
C      -47.09040000     -33.03180000     -73.65380000
C      -46.88110000     -34.39260000     -73.38540000
C      -47.22700000     -34.88120000     -72.13970000
C      -48.00580000     -34.15500000     -71.18070000
C      -48.43630000     -32.94320000     -71.65420000
C      -47.94360000     -32.31470000     -72.77750000
H      -46.84070000     -32.67990000     -74.64560000
H      -47.12690000     -35.94970000     -72.05000000
H      -49.05630000     -32.34320000     -70.98040000
H      -48.23850000     -31.31160000     -73.05040000
C      -48.35070000     -34.86400000     -69.90280000
H      -47.83170000     -35.79610000     -69.82610000
H      -49.39650000     -35.17550000     -69.91130000
C      -46.05800000     -35.23900000     -74.33490000
H      -46.26090000     -36.30000000     -74.22180000
H      -46.34800000     -34.98390000     -75.42780000
S      -47.78760000     -33.80210000     -68.52060000
S      -44.25110000     -35.05360000     -74.07870000
C      -46.17750000     -34.61690000     -68.17480000
H      -46.00230000     -34.21900000     -67.23890000
H      -46.30040000     -35.74690000     -67.99910000
C      -43.84830000     -35.94350000     -72.50330000
H      -43.39770000     -36.89350000     -72.72770000
H      -44.83680000     -36.08250000     -72.03490000
C      -42.84830000     -35.11490000     -71.65860000
H      -43.05270000     -35.40020000     -70.63210000
H      -41.88680000     -35.46720000     -72.05950000
C      -45.11300000     -34.46230000     -69.23180000
H      -45.53200000     -34.83690000     -70.17170000
H      -44.34920000     -35.20500000     -69.02500000
C      -44.59200000     -33.07240000     -69.56510000
C      -45.11640000     -31.91140000     -68.96330000
C      -43.78120000     -32.78740000     -70.72070000
H      -45.70850000     -32.03450000     -68.08490000
C      -43.74190000     -31.42550000     -70.97410000
C      -42.92010000     -33.57870000     -71.56070000
C      -42.26700000     -32.75970000     -72.47680000
S      -44.54530000     -30.45000000     -69.77600000
S      -42.56610000     -31.02840000     -72.27200000
H      -41.45750000     -33.07470000     -73.15020000
