40
Properties=species:S:1:pos:R:3 #=T CELL(abcABC):=T 1.889726e+02=T 90.00000=T Traj:=T positionsangstrom=T Step:=T 0=T Bead:=T pbc="F F F"
C      -46.03740000     -32.84480000     -73.66970000
C      -46.28030000     -34.24780000     -73.56970000
C      -47.23130000     -34.74130000     -72.68120000
C      -47.87210000     -33.92560000     -71.72620000
C      -47.52250000     -32.57110000     -71.75380000
C      -46.59700000     -32.03150000     -72.72410000
H      -45.50720000     -32.47980000     -74.52460000
H      -47.42240000     -35.75830000     -72.75590000
H      -47.94300000     -31.94320000     -70.98150000
H      -46.37730000     -30.92270000     -72.76860000
C      -48.69960000     -34.41790000     -70.65730000
H      -48.78500000     -35.46960000     -70.61320000
H      -49.66740000     -34.02900000     -70.86310000
C      -45.39800000     -35.11770000     -74.51590000
H      -45.90230000     -36.18110000     -74.40780000
H      -45.46870000     -34.73130000     -75.51240000
S      -48.39750000     -33.83330000     -68.87750000
S      -43.61370000     -35.21270000     -74.04220000
C      -46.97300000     -34.82820000     -68.50810000
H      -46.73190000     -34.61810000     -67.47480000
H      -47.20260000     -35.92940000     -68.52630000
C      -43.55390000     -36.08310000     -72.44610000
H      -42.96320000     -36.96490000     -72.66060000
H      -44.57290000     -36.53910000     -72.26680000
C      -42.95770000     -35.11260000     -71.33610000
H      -43.45590000     -35.42190000     -70.35260000
H      -41.86550000     -35.29110000     -71.16910000
C      -45.73230000     -34.61140000     -69.35250000
H      -45.87760000     -35.12300000     -70.26890000
H      -44.91450000     -35.23520000     -68.83670000
C      -45.22280000     -33.24930000     -69.61340000
C      -45.78140000     -32.13150000     -69.06890000
C      -44.08720000     -32.94570000     -70.46020000
H      -46.57380000     -32.13330000     -68.34990000
C      -43.92730000     -31.54300000     -70.62220000
C      -43.13990000     -33.62340000     -71.43060000
C      -42.28270000     -32.71850000     -72.00270000
S      -44.95710000     -30.59320000     -69.54420000
S      -42.62310000     -31.03150000     -71.64780000
H      -41.49000000     -32.95930000     -72.68690000
