40
Properties=species:S:1:pos:R:3 #=T CELL(abcABC):=T 1.889726e+02=T 90.00000=T Traj:=T positionsangstrom=T Step:=T 0=T Bead:=T pbc="F F F"
C      -46.45820000     -32.92760000     -73.68300000
C      -46.47240000     -34.33310000     -73.56590000
C      -47.17360000     -34.92170000     -72.51600000
C      -47.82880000     -34.06270000     -71.58850000
C      -47.89640000     -32.67350000     -71.76400000
C      -47.16670000     -32.14890000     -72.81870000
H      -45.90850000     -32.52390000     -74.51430000
H      -47.19580000     -35.96410000     -72.36780000
H      -48.45200000     -32.09280000     -70.99380000
H      -47.25090000     -31.03980000     -72.88630000
C      -48.46770000     -34.77200000     -70.35530000
H      -48.02800000     -35.82380000     -70.30840000
H      -49.60700000     -34.80380000     -70.47440000
C      -45.81100000     -35.17870000     -74.57770000
H      -46.30490000     -36.13320000     -74.62350000
H      -45.88950000     -34.69520000     -75.52330000
S      -48.06180000     -33.93790000     -68.73980000
S      -44.01010000     -35.28080000     -74.12710000
C      -46.50250000     -34.80750000     -68.39670000
H      -46.10970000     -34.48170000     -67.46730000
H      -46.74430000     -35.92360000     -68.28820000
C      -44.00720000     -35.72800000     -72.36720000
H      -43.90310000     -36.81190000     -72.21410000
H      -44.95140000     -35.47960000     -71.92120000
C      -42.91980000     -34.98020000     -71.63880000
H      -42.75550000     -35.44260000     -70.68650000
H      -42.03900000     -35.18810000     -72.20300000
C      -45.52110000     -34.54760000     -69.52710000
H      -45.88350000     -34.80100000     -70.44820000
H      -44.58840000     -35.11350000     -69.32790000
C      -45.04360000     -33.12590000     -69.67260000
C      -45.56610000     -32.02690000     -68.96330000
C      -43.97230000     -32.76890000     -70.61250000
H      -46.34960000     -32.02180000     -68.14140000
C      -43.68620000     -31.40720000     -70.55550000
C      -43.08980000     -33.47250000     -71.45580000
C      -42.25720000     -32.62380000     -72.11980000
S      -44.81910000     -30.59700000     -69.53680000
S      -42.47820000     -30.95600000     -71.69290000
H      -41.34430000     -33.00940000     -72.63310000
