40
Properties=species:S:1:pos:R:3 #=T CELL(abcABC):=T 1.889726e+02=T 90.00000=T Traj:=T positionsangstrom=T Step:=T 0=T Bead:=T pbc="F F F"
C      -46.40070000     -32.87450000     -73.70900000
C      -46.53780000     -34.26110000     -73.69630000
C      -47.35590000     -34.81590000     -72.71190000
C      -47.91910000     -33.98840000     -71.66960000
C      -47.64550000     -32.58280000     -71.63660000
C      -47.01330000     -32.00010000     -72.71990000
H      -45.78900000     -32.38770000     -74.53680000
H      -47.54920000     -35.91420000     -72.73620000
H      -47.94720000     -31.97380000     -70.80640000
H      -46.80650000     -30.93830000     -72.77220000
C      -48.78220000     -34.58390000     -70.58520000
H      -48.84680000     -35.63020000     -70.56480000
H      -49.78130000     -34.22510000     -70.61960000
C      -45.71180000     -35.14270000     -74.49510000
H      -46.02840000     -36.18690000     -74.54020000
H      -45.55010000     -34.87140000     -75.60410000
S      -48.32620000     -34.13290000     -68.83200000
S      -43.92690000     -35.33340000     -74.03940000
C      -46.64750000     -34.85000000     -68.39170000
H      -46.46390000     -34.59620000     -67.28080000
H      -46.72990000     -35.90380000     -68.39560000
C      -43.73710000     -35.79360000     -72.25550000
H      -43.34350000     -36.84190000     -72.26690000
H      -44.77520000     -35.78430000     -71.85910000
C      -42.71610000     -34.96270000     -71.46700000
H      -42.63960000     -35.37640000     -70.45390000
H      -41.69740000     -35.12650000     -71.91640000
C      -45.39770000     -34.52020000     -69.29180000
H      -45.62440000     -35.06310000     -70.27630000
H      -44.60890000     -35.08870000     -68.81220000
C      -44.94950000     -33.18210000     -69.62730000
C      -45.54050000     -32.09980000     -69.05040000
C      -43.94050000     -32.82940000     -70.62780000
H      -46.37330000     -32.22270000     -68.36300000
C      -43.87550000     -31.47550000     -70.73720000
C      -42.94080000     -33.48120000     -71.41510000
C      -42.20070000     -32.55230000     -72.08400000
S      -44.82250000     -30.61400000     -69.58110000
S      -42.53420000     -30.89290000     -71.66230000
H      -41.38470000     -32.88550000     -72.72750000
