40
Properties=species:S:1:pos:R:3 #=T CELL(abcABC):=T 1.889726e+02=T 90.00000=T Traj:=T positionsangstrom=T Step:=T 0=T Bead:=T pbc="F F F"
C      -46.20470000     -29.64590000     -71.37730000
C      -46.99420000     -30.42770000     -72.29000000
C      -47.80250000     -31.44600000     -71.80270000
C      -47.92510000     -31.53660000     -70.40500000
C      -47.19500000     -30.75340000     -69.52490000
C      -46.37540000     -29.70430000     -69.99610000
H      -45.80640000     -28.81670000     -71.85430000
H      -48.37650000     -32.05380000     -72.37010000
H      -47.31260000     -30.87560000     -68.40390000
H      -45.76100000     -29.10990000     -69.36390000
C      -48.84090000     -32.63790000     -69.88350000
H      -49.84260000     -32.42620000     -70.06530000
H      -48.64590000     -32.57650000     -68.77840000
C      -46.78220000     -30.26660000     -73.78160000
H      -47.65410000     -29.90790000     -74.29920000
H      -45.97770000     -29.52380000     -74.00170000
S      -48.44240000     -34.36570000     -70.48600000
S      -46.33480000     -31.93940000     -74.58580000
C      -46.72720000     -34.59930000     -69.99570000
H      -46.13980000     -33.76000000     -70.31130000
H      -46.64930000     -34.62180000     -68.89780000
C      -44.82630000     -32.49380000     -73.69820000
H      -43.95000000     -31.72190000     -73.82850000
H      -44.59230000     -33.44980000     -74.28700000
C      -44.97550000     -32.95970000     -72.26710000
H      -45.43050000     -32.24050000     -71.57960000
H      -45.72210000     -33.76590000     -72.29340000
C      -46.16220000     -35.90730000     -70.78160000
H      -46.39700000     -35.72550000     -71.76690000
H      -46.55110000     -36.80360000     -70.47720000
C      -44.68890000     -35.95190000     -70.55630000
C      -44.06520000     -36.99670000     -69.91130000
C      -43.69020000     -35.00960000     -71.10470000
H      -44.54460000     -37.84370000     -69.52130000
C      -42.38820000     -35.30500000     -70.64470000
C      -43.73280000     -33.67730000     -71.75220000
C      -42.51420000     -33.06610000     -71.67770000
S      -42.33300000     -36.82250000     -69.74970000
S      -41.22770000     -34.00070000     -71.06870000
H      -42.32620000     -32.17350000     -72.20280000
