40
Properties=species:S:1:pos:R:3 #=T CELL(abcABC):=T 1.889726e+02=T 90.00000=T Traj:=T positionsangstrom=T Step:=T 0=T Bead:=T pbc="F F F"
C      -44.38740000     -36.43090000     -73.40310000
C      -43.62680000     -36.06310000     -72.30150000
C      -44.22630000     -36.31890000     -71.07910000
C      -45.56120000     -36.63370000     -70.89550000
C      -46.32800000     -36.94890000     -72.01320000
C      -45.71360000     -36.95930000     -73.25670000
H      -43.86640000     -36.34190000     -74.36520000
H      -43.58810000     -36.33690000     -70.16520000
H      -47.29850000     -37.24330000     -71.88540000
H      -46.17190000     -37.34830000     -74.17880000
C      -46.17080000     -36.88740000     -69.53580000
H      -45.59040000     -37.68550000     -69.03630000
H      -47.20000000     -37.23020000     -69.55860000
C      -42.21030000     -35.58720000     -72.29000000
H      -41.69490000     -36.04060000     -71.46590000
H      -41.68230000     -35.89890000     -73.13100000
S      -46.14510000     -35.34430000     -68.36930000
S      -42.21470000     -33.77900000     -72.52090000
C      -46.88440000     -34.16620000     -69.61360000
H      -46.25150000     -34.05780000     -70.50960000
H      -47.93370000     -34.48960000     -69.82620000
C      -42.42560000     -32.87300000     -70.87080000
H      -42.06700000     -31.87970000     -71.12090000
H      -41.88020000     -33.41320000     -70.09990000
C      -43.85380000     -32.70610000     -70.55590000
H      -44.43810000     -33.60130000     -70.68450000
H      -43.86480000     -32.31030000     -69.52880000
C      -46.87090000     -32.71110000     -68.98950000
H      -45.96380000     -32.58370000     -68.43020000
H      -47.74320000     -32.77400000     -68.32270000
C      -47.00300000     -31.61590000     -70.09080000
C      -48.23590000     -31.05680000     -70.40760000
C      -46.01670000     -31.28720000     -71.10670000
H      -49.25990000     -31.24740000     -69.93490000
C      -46.46470000     -30.33920000     -72.01900000
C      -44.61200000     -31.67100000     -71.32840000
C      -44.09310000     -30.91260000     -72.38540000
S      -48.12610000     -29.95550000     -71.77910000
S      -45.24690000     -29.94110000     -73.25320000
H      -43.05920000     -31.04670000     -72.78530000
