40
Properties=species:S:1:pos:R:3 #=T CELL(abcABC):=T 1.889726e+02=T 90.00000=T Traj:=T positionsangstrom=T Step:=T 0=T Bead:=T pbc="F F F"
C      -46.74300000     -33.04070000     -73.85120000
C      -46.66310000     -34.43250000     -73.61110000
C      -47.37010000     -34.98750000     -72.46520000
C      -47.95590000     -34.15830000     -71.51350000
C      -47.85280000     -32.73570000     -71.68020000
C      -47.29530000     -32.22600000     -72.85000000
H      -46.29460000     -32.54720000     -74.67220000
H      -47.44810000     -36.04590000     -72.19020000
H      -48.40860000     -32.10260000     -70.94970000
H      -47.39310000     -31.10640000     -72.91250000
C      -48.58330000     -34.72610000     -70.27750000
H      -48.48280000     -35.76210000     -70.29100000
H      -49.64130000     -34.51870000     -70.32470000
C      -45.80260000     -35.32240000     -74.61280000
H      -46.17460000     -36.41330000     -74.62310000
H      -45.95970000     -34.96130000     -75.56990000
S      -48.02730000     -33.98970000     -68.70460000
S      -44.00220000     -35.15060000     -74.33220000
C      -46.42570000     -34.67690000     -68.16320000
H      -46.11990000     -34.20110000     -67.24160000
H      -46.65690000     -35.73270000     -68.02490000
C      -43.96480000     -35.66460000     -72.46560000
H      -43.72690000     -36.77540000     -72.37890000
H      -44.97700000     -35.52260000     -72.13890000
C      -42.95810000     -34.98580000     -71.61970000
H      -43.05910000     -35.39870000     -70.56530000
H      -41.93150000     -35.20700000     -71.96710000
C      -45.26890000     -34.54160000     -69.14450000
H      -45.48450000     -35.17950000     -70.02620000
H      -44.41110000     -35.04450000     -68.72900000
C      -44.96830000     -33.10970000     -69.53950000
C      -45.50590000     -31.92940000     -68.92070000
C      -43.94430000     -32.79300000     -70.53640000
H      -46.23190000     -31.90190000     -68.12000000
C      -43.61360000     -31.43310000     -70.55660000
C      -43.06850000     -33.49580000     -71.47040000
C      -42.16440000     -32.68210000     -72.10720000
S      -44.75140000     -30.53140000     -69.59550000
S      -42.45610000     -30.93280000     -71.80740000
H      -41.43840000     -33.07100000     -72.83460000
