40
Properties=species:S:1:pos:R:3 #=T CELL(abcABC):=T 1.889726e+02=T 90.00000=T Traj:=T positionsangstrom=T Step:=T 0=T Bead:=T pbc="F F F"
C      -43.99900000     -36.41330000     -73.37050000
C      -43.43160000     -36.13770000     -72.14270000
C      -44.15740000     -36.28850000     -70.90340000
C      -45.49910000     -36.69680000     -70.89550000
C      -46.01250000     -36.93150000     -72.19660000
C      -45.31920000     -36.81130000     -73.39590000
H      -43.39540000     -36.27220000     -74.28960000
H      -43.65520000     -36.20960000     -69.91310000
H      -47.10040000     -37.24670000     -72.27860000
H      -45.85510000     -36.82380000     -74.38200000
C      -46.35520000     -36.97910000     -69.71500000
H      -46.03680000     -37.86720000     -69.12700000
H      -47.47420000     -37.16820000     -69.92540000
C      -42.05360000     -35.56710000     -72.20660000
H      -41.39290000     -35.72160000     -71.34330000
H      -41.56530000     -36.15130000     -73.00460000
S      -46.44220000     -35.54590000     -68.56850000
S      -41.98000000     -33.76450000     -72.56440000
C      -47.04380000     -34.28740000     -69.75680000
H      -46.44180000     -34.29670000     -70.65380000
H      -48.00700000     -34.53980000     -70.06100000
C      -42.59070000     -33.04940000     -71.05590000
H      -42.13890000     -32.02520000     -71.03300000
H      -42.18190000     -33.75550000     -70.32140000
C      -44.08200000     -32.99540000     -70.77940000
H      -44.57480000     -34.00540000     -70.84990000
H      -44.07250000     -32.69400000     -69.71660000
C      -46.98530000     -32.88220000     -69.10330000
H      -46.02600000     -32.75830000     -68.56230000
H      -47.76690000     -32.69020000     -68.34100000
C      -47.11670000     -31.74270000     -70.11210000
C      -48.20440000     -30.87880000     -70.14100000
C      -46.10400000     -31.37770000     -71.16630000
H      -49.00730000     -30.96810000     -69.50130000
C      -46.58210000     -30.28390000     -71.94250000
C      -44.79770000     -31.86050000     -71.57130000
C      -44.27180000     -31.06580000     -72.55590000
S      -48.00610000     -29.53440000     -71.30890000
S      -45.31900000     -29.74400000     -73.11370000
H      -43.32590000     -31.16750000     -73.05020000
