40
Properties=species:S:1:pos:R:3 #=T CELL(abcABC):=T 1.889726e+02=T 90.00000=T Traj:=T positionsangstrom=T Step:=T 0=T Bead:=T pbc="F F F"
C      -44.00060000     -36.34560000     -73.41860000
C      -43.41470000     -36.15400000     -72.14590000
C      -44.05280000     -36.49680000     -70.96510000
C      -45.41480000     -36.74640000     -71.00430000
C      -46.05130000     -36.84690000     -72.27190000
C      -45.32850000     -36.75220000     -73.45130000
H      -43.40610000     -36.29090000     -74.31650000
H      -43.45800000     -36.38790000     -69.99730000
H      -47.08050000     -37.16300000     -72.21490000
H      -45.87240000     -37.08240000     -74.30020000
C      -46.10680000     -37.03250000     -69.73680000
H      -45.36840000     -37.54060000     -69.12150000
H      -46.95180000     -37.61310000     -69.86970000
C      -42.03100000     -35.68050000     -72.02870000
H      -41.75590000     -35.65100000     -70.91940000
H      -41.23140000     -36.24980000     -72.53870000
S      -46.47220000     -35.48200000     -68.78250000
S      -41.93290000     -33.91510000     -72.60150000
C      -47.23890000     -34.23460000     -69.91900000
H      -46.82140000     -34.15860000     -70.92360000
H      -48.38280000     -34.37770000     -70.00570000
C      -42.41730000     -32.97960000     -71.05660000
H      -41.99050000     -31.99530000     -71.03560000
H      -41.98010000     -33.32930000     -70.09800000
C      -43.93120000     -32.98350000     -70.82920000
H      -44.33480000     -33.93350000     -71.07580000
H      -44.14450000     -33.00510000     -69.72970000
C      -46.95560000     -32.89290000     -69.15020000
H      -45.97760000     -33.00940000     -68.67830000
H      -47.62120000     -32.93710000     -68.28850000
C      -47.12050000     -31.61960000     -69.95850000
C      -48.27590000     -30.84580000     -70.10160000
C      -46.05440000     -31.31210000     -70.93320000
H      -49.19830000     -30.95270000     -69.63130000
C      -46.57980000     -30.23330000     -71.78420000
C      -44.74470000     -31.71610000     -71.38700000
C      -44.32000000     -30.99330000     -72.49320000
S      -48.15920000     -29.61630000     -71.33780000
S      -45.42980000     -29.70700000     -72.99440000
H      -43.35410000     -31.07440000     -72.97400000
