40
Properties=species:S:1:pos:R:3 #=T CELL(abcABC):=T 1.889726e+02=T 90.00000=T Traj:=T positionsangstrom=T Step:=T 0=T Bead:=T pbc="F F F"
C      -44.14420000     -36.16050000     -73.37130000
C      -43.56410000     -35.93660000     -72.11100000
C      -44.32080000     -36.28170000     -71.00670000
C      -45.58580000     -36.84360000     -71.11080000
C      -46.21560000     -36.98340000     -72.36540000
C      -45.47920000     -36.64160000     -73.51910000
H      -43.58480000     -35.88050000     -74.23360000
H      -43.85870000     -36.13170000     -70.04780000
H      -47.27550000     -37.36470000     -72.48910000
H      -46.02330000     -36.73750000     -74.49600000
C      -46.32730000     -37.23520000     -69.85340000
H      -45.86070000     -38.01700000     -69.30320000
H      -47.34190000     -37.52870000     -70.09280000
C      -42.22720000     -35.44470000     -71.85920000
H      -41.90210000     -35.60540000     -70.79930000
H      -41.51030000     -36.13230000     -72.53540000
S      -46.41030000     -35.73770000     -68.68890000
S      -41.83620000     -33.74270000     -72.52140000
C      -46.88910000     -34.37340000     -69.88980000
H      -46.23020000     -34.57830000     -70.75540000
H      -47.92230000     -34.44190000     -70.30450000
C      -42.43140000     -32.86080000     -70.98360000
H      -42.12650000     -31.82320000     -70.90050000
H      -42.05560000     -33.47500000     -70.20930000
C      -43.97760000     -32.78390000     -70.86700000
H      -44.34420000     -33.82000000     -71.05270000
H      -44.17630000     -32.56300000     -69.82030000
C      -46.83530000     -33.02590000     -69.24560000
H      -45.94230000     -33.01820000     -68.62340000
H      -47.71760000     -33.06300000     -68.58010000
C      -46.99630000     -31.91500000     -70.22400000
C      -48.13890000     -31.18440000     -70.14070000
C      -46.09980000     -31.41370000     -71.25270000
H      -48.92600000     -31.28560000     -69.35520000
C      -46.47410000     -30.25110000     -71.77330000
C      -44.73640000     -31.74820000     -71.62000000
C      -44.18530000     -30.74540000     -72.35990000
S      -48.14610000     -29.72340000     -71.24640000
S      -45.34690000     -29.54650000     -72.89540000
H      -43.20670000     -30.77020000     -72.76500000
