40
Properties=species:S:1:pos:R:3 #=T CELL(abcABC):=T 1.889726e+02=T 90.00000=T Traj:=T positionsangstrom=T Step:=T 0=T Bead:=T pbc="F F F"
C      -45.02250000     -36.03730000     -73.67170000
C      -44.19670000     -35.76030000     -72.60650000
C      -44.48680000     -36.32670000     -71.32930000
C      -45.83150000     -36.80880000     -71.10820000
C      -46.64160000     -37.07790000     -72.22040000
C      -46.27160000     -36.71070000     -73.50980000
H      -44.66730000     -35.71740000     -74.63090000
H      -43.87410000     -36.28000000     -70.42780000
H      -47.66360000     -37.50390000     -72.10450000
H      -46.85230000     -37.00700000     -74.42730000
C      -46.30790000     -37.23390000     -69.75040000
H      -45.58120000     -37.89700000     -69.38370000
H      -47.29600000     -37.77800000     -69.79790000
C      -42.80630000     -35.25450000     -72.89630000
H      -41.93780000     -35.79070000     -72.45820000
H      -42.60040000     -35.55360000     -73.99650000
S      -46.22830000     -35.79620000     -68.63860000
S      -42.33730000     -33.42730000     -72.68820000
C      -46.72890000     -34.43260000     -69.80100000
H      -46.09360000     -34.47370000     -70.70950000
H      -47.76270000     -34.72800000     -70.12370000
C      -42.28500000     -33.17430000     -70.90810000
H      -41.53860000     -32.44820000     -70.67800000
H      -41.88740000     -34.04410000     -70.42590000
C      -43.63800000     -32.81570000     -70.34420000
H      -44.39480000     -33.70960000     -70.45120000
H      -43.58950000     -32.66270000     -69.20350000
C      -46.69850000     -32.99050000     -69.16320000
H      -45.74430000     -32.88050000     -68.57510000
H      -47.52920000     -33.03890000     -68.43000000
C      -46.81210000     -31.84240000     -70.11950000
C      -48.05100000     -31.32880000     -70.37950000
C      -45.73930000     -31.35810000     -70.91970000
H      -48.98590000     -31.60900000     -69.95700000
C      -46.15440000     -30.22350000     -71.69630000
C      -44.31680000     -31.66210000     -71.03340000
C      -43.78540000     -30.84220000     -71.99770000
S      -47.87390000     -29.87510000     -71.47540000
S      -44.84930000     -29.57890000     -72.53870000
H      -42.69280000     -30.81260000     -72.11140000
