40
Properties=species:S:1:pos:R:3 #=T CELL(abcABC):=T 1.889726e+02=T 90.00000=T Traj:=T positionsangstrom=T Step:=T 0=T Bead:=T pbc="F F F"
C      -46.05460000     -32.31280000     -73.55910000
C      -46.01720000     -33.66130000     -73.94420000
C      -46.80540000     -34.59360000     -73.26430000
C      -47.47700000     -34.21900000     -72.08860000
C      -47.55600000     -32.86370000     -71.69190000
C      -46.72090000     -31.98060000     -72.40700000
H      -45.33490000     -31.62200000     -73.95950000
H      -46.57330000     -35.67660000     -73.48050000
H      -48.10050000     -32.53990000     -70.84330000
H      -46.61980000     -31.02300000     -71.94050000
C      -48.17460000     -35.30990000     -71.32320000
H      -47.59420000     -36.21730000     -71.41330000
H      -49.11380000     -35.49200000     -71.78090000
C      -44.98400000     -34.17990000     -74.88700000
H      -45.28590000     -35.21930000     -75.18090000
H      -44.89430000     -33.56760000     -75.82750000
S      -48.45840000     -35.09020000     -69.51000000
S      -43.30680000     -34.32930000     -74.08950000
C      -46.82540000     -35.39420000     -68.66150000
H      -46.87040000     -34.93890000     -67.66960000
H      -46.70560000     -36.47720000     -68.55200000
C      -43.53010000     -35.45470000     -72.66870000
H      -43.06980000     -36.43490000     -72.91240000
H      -44.60550000     -35.53170000     -72.43820000
C      -42.79920000     -34.79650000     -71.35060000
H      -43.10080000     -35.51130000     -70.55070000
H      -41.62440000     -34.84330000     -71.41400000
C      -45.56370000     -34.94770000     -69.32810000
H      -45.46540000     -35.29750000     -70.39630000
H      -44.73150000     -35.50260000     -68.81190000
C      -45.30210000     -33.43040000     -69.35210000
C      -46.05070000     -32.45320000     -68.75500000
C      -44.22560000     -32.88940000     -70.14970000
H      -46.95380000     -32.66020000     -68.13030000
C      -44.16990000     -31.50400000     -70.06900000
C      -43.17780000     -33.38470000     -71.04950000
C      -42.44950000     -32.37090000     -71.60830000
S      -45.44920000     -30.84430000     -69.19790000
S      -43.04330000     -30.80340000     -71.22280000
H      -41.70950000     -32.45130000     -72.39660000
