40
Properties=species:S:1:pos:R:3 #=T CELL(abcABC):=T 1.889726e+02=T 90.00000=T Traj:=T positionsangstrom=T Step:=T 0=T Bead:=T pbc="F F F"
C      -46.66120000     -32.51950000     -73.32540000
C      -46.08400000     -33.76760000     -73.71270000
C      -46.53770000     -34.84400000     -73.03100000
C      -47.51290000     -34.78660000     -72.05740000
C      -48.14560000     -33.58640000     -71.78950000
C      -47.76870000     -32.49290000     -72.48710000
H      -46.25100000     -31.60800000     -73.80730000
H      -46.22030000     -35.80010000     -73.37420000
H      -48.91070000     -33.64680000     -71.05400000
H      -48.12850000     -31.48010000     -72.20120000
C      -47.95340000     -36.00730000     -71.29650000
H      -47.28420000     -36.89960000     -71.39560000
H      -48.96050000     -36.29260000     -71.46910000
C      -45.07680000     -33.95040000     -74.80490000
H      -45.21610000     -34.96350000     -75.30220000
H      -45.20730000     -33.20070000     -75.64780000
S      -48.06980000     -35.53080000     -69.49060000
S      -43.30900000     -33.66740000     -74.32250000
C      -46.27250000     -35.64680000     -68.71770000
H      -46.36030000     -35.22030000     -67.72160000
H      -46.08510000     -36.72860000     -68.56020000
C      -43.12460000     -34.83520000     -72.83080000
H      -42.48360000     -35.64110000     -73.18290000
H      -44.05820000     -35.34030000     -72.69260000
C      -42.52680000     -34.35080000     -71.59140000
H      -42.82500000     -35.10990000     -70.89140000
H      -41.40280000     -34.29440000     -71.61610000
C      -45.15220000     -35.06540000     -69.53330000
H      -45.13420000     -35.27460000     -70.63170000
H      -44.20330000     -35.46460000     -69.07730000
C      -45.06260000     -33.54670000     -69.44000000
C      -45.84870000     -32.77320000     -68.64650000
C      -44.12790000     -32.71560000     -70.21840000
H      -46.66600000     -33.05960000     -68.02920000
C      -44.36580000     -31.34910000     -70.05330000
C      -43.03510000     -32.97410000     -71.16270000
C      -42.53640000     -31.85010000     -71.75200000
S      -45.68250000     -30.98290000     -69.00460000
S      -43.27010000     -30.36690000     -71.04960000
H      -41.69240000     -31.82890000     -72.41870000
