40
Properties=species:S:1:pos:R:3 #=T CELL(abcABC):=T 1.889726e+02=T 90.00000=T Traj:=T positionsangstrom=T Step:=T 0=T Bead:=T pbc="F F F"
C      -45.01490000     -35.95720000     -73.77630000
C      -44.11770000     -35.99750000     -72.70200000
C      -44.59880000     -36.25480000     -71.36370000
C      -45.93080000     -36.74600000     -71.15150000
C      -46.77640000     -36.86390000     -72.27210000
C      -46.33900000     -36.40160000     -73.50990000
H      -44.79180000     -35.51380000     -74.71550000
H      -43.88890000     -36.06920000     -70.59060000
H      -47.80400000     -37.30310000     -72.08580000
H      -47.03860000     -36.52580000     -74.36720000
C      -46.28350000     -37.07340000     -69.77080000
H      -45.73720000     -37.97570000     -69.33710000
H      -47.33870000     -37.43670000     -69.77180000
C      -42.68260000     -35.58960000     -72.91750000
H      -42.03990000     -35.95090000     -72.14170000
H      -42.36760000     -35.88740000     -73.87860000
S      -46.06490000     -35.69010000     -68.57790000
S      -42.51620000     -33.72810000     -72.97630000
C      -46.94610000     -34.40010000     -69.70300000
H      -46.29400000     -34.41360000     -70.62930000
H      -48.02150000     -34.56100000     -69.81180000
C      -42.31320000     -33.36480000     -71.09810000
H      -41.48290000     -32.58800000     -71.05770000
H      -41.82810000     -34.34630000     -70.67310000
C      -43.57730000     -32.88410000     -70.39780000
H      -44.25390000     -33.73490000     -70.36540000
H      -43.37340000     -32.60990000     -69.40400000
C      -46.76790000     -32.98690000     -69.03870000
H      -45.88010000     -32.90700000     -68.46170000
H      -47.52080000     -32.74030000     -68.26810000
C      -46.81370000     -31.83090000     -70.05230000
C      -47.95580000     -31.14870000     -70.21960000
C      -45.68500000     -31.31850000     -70.77200000
H      -48.88160000     -31.20230000     -69.74960000
C      -46.09100000     -30.25910000     -71.62220000
C      -44.31830000     -31.63680000     -70.94860000
C      -43.74550000     -30.81080000     -71.83000000
S      -47.81660000     -29.86860000     -71.46470000
S      -44.80580000     -29.56820000     -72.45480000
H      -42.67190000     -30.76280000     -72.03710000
