40
Properties=species:S:1:pos:R:3 #=T CELL(abcABC):=T 1.889726e+02=T 90.00000=T Traj:=T positionsangstrom=T Step:=T 0=T Bead:=T pbc="F F F"
C      -46.41210000     -32.52830000     -73.69690000
C      -46.13250000     -33.91420000     -73.76120000
C      -46.78830000     -34.74190000     -72.77260000
C      -47.74060000     -34.30340000     -71.93380000
C      -47.94850000     -32.91380000     -71.87370000
C      -47.26070000     -32.04360000     -72.64730000
H      -46.01680000     -31.87850000     -74.43070000
H      -46.56300000     -35.82970000     -72.87970000
H      -48.61180000     -32.49800000     -71.13470000
H      -47.39880000     -30.96080000     -72.45090000
C      -48.52660000     -35.21640000     -71.04000000
H      -48.53010000     -36.25940000     -71.35000000
H      -49.57910000     -34.87810000     -70.97620000
C      -45.04590000     -34.43270000     -74.68150000
H      -45.11700000     -35.50540000     -74.84790000
H      -44.99230000     -34.04050000     -75.70310000
S      -48.11090000     -35.24320000     -69.26510000
S      -43.32830000     -34.16090000     -74.12000000
C      -46.39200000     -35.91470000     -68.99960000
H      -46.24730000     -36.04640000     -67.93310000
H      -46.41560000     -36.94370000     -69.34580000
C      -43.23840000     -35.11780000     -72.55810000
H      -42.89480000     -36.12480000     -72.76270000
H      -44.27570000     -35.30880000     -72.24480000
C      -42.41590000     -34.40970000     -71.47850000
H      -42.17730000     -35.10770000     -70.63620000
H      -41.46930000     -34.27470000     -72.02610000
C      -45.19030000     -35.15470000     -69.73690000
H      -45.21090000     -35.51040000     -70.77930000
H      -44.20610000     -35.42870000     -69.34940000
C      -45.22060000     -33.63350000     -69.75010000
C      -46.13060000     -32.80970000     -69.12290000
C      -44.17100000     -32.76050000     -70.37600000
H      -47.09990000     -33.08550000     -68.66040000
C      -44.32860000     -31.37660000     -70.21560000
C      -42.97720000     -33.03060000     -71.17460000
C      -42.23990000     -31.89320000     -71.50660000
S      -45.73040000     -31.06550000     -69.26830000
S      -42.99340000     -30.41000000     -70.87380000
H      -41.27130000     -31.94440000     -71.95380000
