40
Properties=species:S:1:pos:R:3 #=T CELL(abcABC):=T 1.889726e+02=T 90.00000=T Traj:=T positionsangstrom=T Step:=T 0=T Bead:=T pbc="F F F"
C      -46.12260000     -32.68900000     -73.47420000
C      -45.95770000     -34.02230000     -73.89230000
C      -46.63070000     -34.97930000     -73.09150000
C      -47.55950000     -34.62300000     -72.09450000
C      -47.77240000     -33.24070000     -71.82940000
C      -46.98830000     -32.29020000     -72.46390000
H      -45.64210000     -31.93410000     -74.00310000
H      -46.38720000     -36.05700000     -73.11830000
H      -48.58420000     -32.94590000     -71.20560000
H      -47.06220000     -31.21230000     -72.24310000
C      -48.28290000     -35.65670000     -71.26920000
H      -48.21460000     -36.69080000     -71.66900000
H      -49.36170000     -35.41030000     -71.19920000
C      -44.80850000     -34.36940000     -74.86810000
H      -44.82130000     -35.50820000     -74.89250000
H      -44.93570000     -33.87390000     -75.85150000
S      -47.82060000     -35.72490000     -69.48490000
S      -43.07210000     -33.94360000     -74.50010000
C      -46.05580000     -36.08510000     -69.28070000
H      -45.97890000     -36.06810000     -68.16180000
H      -45.74350000     -37.15510000     -69.68260000
C      -42.85360000     -34.61100000     -72.83300000
H      -42.27520000     -35.53910000     -72.82990000
H      -43.91220000     -35.02130000     -72.66060000
C      -42.35880000     -33.53250000     -71.79860000
H      -41.98620000     -34.02930000     -70.96140000
H      -41.59140000     -32.90620000     -72.29330000
C      -45.02360000     -35.10200000     -69.94980000
H      -45.12230000     -35.06050000     -71.06210000
H      -43.99560000     -35.48180000     -69.84010000
C      -44.95520000     -33.70870000     -69.46400000
C      -45.75440000     -33.17420000     -68.48600000
C      -44.37070000     -32.62920000     -70.28930000
H      -46.23930000     -33.85640000     -67.76470000
C      -44.65300000     -31.32810000     -69.78610000
C      -43.31890000     -32.50580000     -71.29580000
C      -43.17850000     -31.18260000     -71.77160000
S      -45.80530000     -31.41500000     -68.46490000
S      -44.14050000     -30.03420000     -70.76350000
H      -42.78620000     -30.84800000     -72.71720000
