40
Properties=species:S:1:pos:R:3 #=T CELL(abcABC):=T 1.889726e+02=T 90.00000=T Traj:=T positionsangstrom=T Step:=T 0=T Bead:=T pbc="F F F"
C      -46.01060000     -32.57460000     -73.34920000
C      -45.82480000     -33.87620000     -73.73630000
C      -46.51990000     -34.88630000     -73.04760000
C      -47.43550000     -34.60910000     -72.03540000
C      -47.74300000     -33.30090000     -71.79020000
C      -46.95000000     -32.26400000     -72.35640000
H      -45.32930000     -31.76770000     -73.69550000
H      -46.41750000     -35.90460000     -73.34190000
H      -48.37890000     -33.06260000     -70.95050000
H      -47.11140000     -31.24660000     -72.00890000
C      -48.07880000     -35.75620000     -71.27150000
H      -47.81700000     -36.72080000     -71.73130000
H      -49.09670000     -35.59070000     -71.42780000
C      -45.03970000     -34.30400000     -74.94870000
H      -45.20650000     -35.38830000     -75.19880000
H      -45.20940000     -33.66430000     -75.80430000
S      -47.73610000     -35.69380000     -69.47990000
S      -43.19640000     -33.94280000     -74.46810000
C      -45.97030000     -36.11840000     -69.38420000
H      -45.81450000     -36.44290000     -68.35280000
H      -45.84940000     -37.00090000     -69.90870000
C      -42.99510000     -34.65300000     -72.80440000
H      -42.27960000     -35.45530000     -72.75550000
H      -43.98060000     -35.14740000     -72.49480000
C      -42.48680000     -33.69460000     -71.74870000
H      -42.17650000     -34.29140000     -70.83150000
H      -41.55750000     -33.32660000     -72.17770000
C      -44.83820000     -35.10220000     -69.96510000
H      -44.98050000     -35.14780000     -71.05950000
H      -43.85710000     -35.50950000     -69.73790000
C      -45.03600000     -33.64220000     -69.59600000
C      -45.75790000     -33.17730000     -68.55270000
C      -44.40140000     -32.58520000     -70.32690000
H      -46.29220000     -33.83660000     -67.85650000
C      -44.86430000     -31.34840000     -69.95370000
C      -43.36140000     -32.51910000     -71.30640000
C      -43.09020000     -31.19640000     -71.63870000
S      -45.89060000     -31.48050000     -68.48890000
S      -44.13690000     -30.02520000     -70.84180000
H      -42.29230000     -30.76240000     -72.24490000
