40
Properties=species:S:1:pos:R:3 #=T CELL(abcABC):=T 1.889726e+02=T 90.00000=T Traj:=T positionsangstrom=T Step:=T 0=T Bead:=T pbc="F F F"
C      -47.05390000     -31.70040000     -71.13800000
C      -47.15500000     -32.56570000     -70.04540000
C      -46.14250000     -32.61160000     -69.11940000
C      -44.92800000     -31.76670000     -69.28240000
C      -44.84050000     -30.96860000     -70.44900000
C      -45.98880000     -30.89300000     -71.26800000
H      -47.73570000     -31.71910000     -71.92170000
H      -46.14080000     -33.34410000     -68.34860000
H      -44.01260000     -30.32700000     -70.68540000
H      -45.87870000     -30.28630000     -72.19560000
C      -43.80810000     -31.89950000     -68.25510000
H      -44.03210000     -31.29520000     -67.40210000
H      -42.84820000     -31.42740000     -68.63120000
C      -48.27840000     -33.48460000     -69.83720000
H      -48.16870000     -34.12110000     -69.01230000
H      -49.15600000     -32.94340000     -69.58620000
S      -43.67870000     -33.65550000     -67.68450000
S      -48.58590000     -34.55610000     -71.31420000
C      -42.84520000     -34.49160000     -69.14840000
H      -42.14320000     -33.75010000     -69.46310000
H      -42.26030000     -35.34780000     -68.82380000
C      -47.28670000     -35.84430000     -71.15700000
H      -47.74290000     -36.77590000     -70.79560000
H      -46.60590000     -35.52920000     -70.32880000
C      -46.39880000     -36.11850000     -72.37690000
H      -45.61240000     -36.76060000     -72.12430000
H      -47.13940000     -36.62980000     -73.06760000
C      -43.79830000     -34.87620000     -70.27840000
H      -44.80830000     -34.97360000     -69.88770000
H      -43.55760000     -35.90990000     -70.59680000
C      -43.80070000     -33.91740000     -71.51380000
C      -42.74090000     -33.06090000     -71.84800000
C      -44.75050000     -34.03080000     -72.65200000
H      -41.95050000     -32.93390000     -71.08850000
C      -44.41510000     -33.03910000     -73.54540000
C      -45.87990000     -34.82330000     -73.09520000
C      -46.40150000     -34.46570000     -74.24590000
S      -42.97490000     -32.13580000     -73.30000000
S      -45.57090000     -33.04400000     -74.90430000
H      -47.31720000     -34.82040000     -74.73070000
