40
Properties=species:S:1:pos:R:3 #=T CELL(abcABC):=T 1.889726e+02=T 90.00000=T Traj:=T positionsangstrom=T Step:=T 0=T Bead:=T pbc="F F F"
C      -46.27690000     -32.55340000     -73.46470000
C      -45.94630000     -33.82920000     -73.84300000
C      -46.54430000     -34.86930000     -73.08700000
C      -47.31860000     -34.61620000     -71.97120000
C      -47.50760000     -33.26970000     -71.58420000
C      -47.12670000     -32.21490000     -72.39280000
H      -45.87450000     -31.66660000     -74.04780000
H      -46.39320000     -35.88650000     -73.41850000
H      -48.20610000     -33.09200000     -70.72840000
H      -47.59150000     -31.21410000     -72.18690000
C      -47.97580000     -35.76370000     -71.23780000
H      -47.61540000     -36.73090000     -71.60860000
H      -49.12950000     -35.72110000     -71.28390000
C      -44.88280000     -34.10330000     -74.92640000
H      -44.93600000     -35.13920000     -75.20680000
H      -45.23470000     -33.62030000     -75.82350000
S      -47.68530000     -35.75070000     -69.38430000
S      -43.14600000     -33.67980000     -74.53980000
C      -45.87680000     -36.15450000     -69.17970000
H      -45.70470000     -36.23120000     -68.06690000
H      -45.81200000     -37.17910000     -69.63360000
C      -42.94670000     -34.64370000     -72.87700000
H      -42.22430000     -35.44980000     -73.09450000
H      -43.93500000     -34.98560000     -72.64210000
C      -42.48870000     -33.83980000     -71.73570000
H      -42.11860000     -34.54970000     -70.94180000
H      -41.51280000     -33.39070000     -71.89330000
C      -44.86940000     -35.17680000     -69.79750000
H      -44.90280000     -35.29400000     -70.90030000
H      -43.84890000     -35.44410000     -69.48550000
C      -45.09360000     -33.67240000     -69.46780000
C      -46.03200000     -33.17610000     -68.63900000
C      -44.31280000     -32.64130000     -70.21090000
H      -46.80110000     -33.74250000     -68.16590000
C      -44.85730000     -31.39750000     -69.89610000
C      -43.37600000     -32.64950000     -71.31960000
C      -43.15890000     -31.38180000     -71.80280000
S      -46.02010000     -31.40920000     -68.66810000
S      -44.02210000     -30.16930000     -70.83130000
H      -42.32740000     -31.05620000     -72.35670000
