40
Properties=species:S:1:pos:R:3 #=T CELL(abcABC):=T 1.889726e+02=T 90.00000=T Traj:=T positionsangstrom=T Step:=T 0=T Bead:=T pbc="F F F"
C      -46.25190000     -32.47120000     -73.46180000
C      -45.80250000     -33.78260000     -73.80010000
C      -46.32330000     -34.78900000     -73.07100000
C      -47.20300000     -34.62790000     -71.94480000
C      -47.68770000     -33.34540000     -71.71950000
C      -47.21840000     -32.26650000     -72.50160000
H      -45.84290000     -31.67030000     -74.06530000
H      -45.94550000     -35.83180000     -73.17090000
H      -48.43880000     -33.11780000     -70.92670000
H      -47.46740000     -31.22780000     -72.19560000
C      -47.73120000     -35.85180000     -71.23910000
H      -47.15690000     -36.69710000     -71.57020000
H      -48.71280000     -36.15010000     -71.48440000
C      -44.96710000     -33.89910000     -75.02930000
H      -44.79510000     -34.97620000     -75.36450000
H      -45.40000000     -33.27530000     -75.85280000
S      -47.66530000     -35.79330000     -69.35700000
S      -43.22200000     -33.42840000     -74.50250000
C      -45.89980000     -36.07740000     -68.79500000
H      -45.80640000     -35.83430000     -67.75980000
H      -45.68120000     -37.13340000     -68.94430000
C      -42.98510000     -34.55890000     -72.99500000
H      -42.35370000     -35.43720000     -73.27050000
H      -43.91190000     -35.02590000     -72.73220000
C      -42.52350000     -33.93950000     -71.68890000
H      -42.62330000     -34.63430000     -70.89270000
H      -41.46210000     -33.63690000     -71.87260000
C      -44.88430000     -35.24570000     -69.52210000
H      -44.79660000     -35.58690000     -70.55700000
H      -43.93110000     -35.57150000     -69.06960000
C      -45.06460000     -33.75290000     -69.40820000
C      -46.08600000     -33.19330000     -68.69740000
C      -44.36820000     -32.81320000     -70.28710000
H      -46.74640000     -33.71690000     -68.04050000
C      -44.94740000     -31.54860000     -70.05500000
C      -43.25700000     -32.68010000     -71.21990000
C      -42.96140000     -31.43210000     -71.66750000
S      -46.13150000     -31.43420000     -68.83590000
S      -44.03800000     -30.22190000     -70.89100000
H      -42.36960000     -31.20220000     -72.46930000
