40
Properties=species:S:1:pos:R:3 #=T CELL(abcABC):=T 1.889726e+02=T 90.00000=T Traj:=T positionsangstrom=T Step:=T 0=T Bead:=T pbc="F F F"
C      -41.07770000     -33.84500000     -70.00700000
C      -41.93750000     -34.31030000     -71.05980000
C      -42.41660000     -33.52290000     -72.05920000
C      -42.28210000     -32.10810000     -71.90130000
C      -41.55610000     -31.57740000     -70.79990000
C      -40.95970000     -32.48850000     -69.89980000
H      -40.87260000     -34.37800000     -69.11430000
H      -43.10970000     -33.94790000     -72.74690000
H      -41.37130000     -30.52450000     -70.85700000
H      -40.29430000     -32.09610000     -69.09100000
C      -42.84010000     -31.21020000     -72.99690000
H      -43.39100000     -31.79620000     -73.74870000
H      -41.96450000     -30.70100000     -73.37090000
C      -42.17290000     -35.79440000     -71.15510000
H      -41.24890000     -36.41990000     -71.18080000
H      -42.55920000     -36.20680000     -70.18420000
S      -43.89000000     -29.85080000     -72.27130000
S      -43.22930000     -36.40430000     -72.58790000
C      -45.58790000     -30.73190000     -72.04160000
H      -46.24310000     -29.92030000     -71.96130000
H      -45.86170000     -31.28070000     -72.92450000
C      -44.96690000     -36.34670000     -71.87960000
H      -44.88300000     -36.82140000     -70.88140000
H      -45.66690000     -36.96510000     -72.53950000
C      -45.52720000     -34.95940000     -71.69900000
H      -44.89980000     -34.34490000     -71.03690000
H      -45.55610000     -34.45660000     -72.65290000
C      -45.67640000     -31.69450000     -70.88690000
H      -45.31780000     -31.28060000     -69.91330000
H      -45.01500000     -32.54990000     -71.14170000
C      -47.05860000     -32.20570000     -70.64440000
C      -48.14730000     -31.37650000     -70.40150000
C      -47.49250000     -33.55510000     -70.75990000
H      -48.11120000     -30.28980000     -70.23150000
C      -48.88480000     -33.67470000     -70.60170000
C      -47.03840000     -34.83260000     -71.21510000
C      -47.91570000     -35.87810000     -71.19870000
S      -49.71130000     -32.20040000     -70.30140000
S      -49.56320000     -35.35490000     -70.79770000
H      -47.72190000     -36.89590000     -71.45200000
