40
Properties=species:S:1:pos:R:3 #=T CELL(abcABC):=T 1.889726e+02=T 90.00000=T Traj:=T positionsangstrom=T Step:=T 0=T Bead:=T pbc="F F F"
C      -47.00060000     -33.00200000     -73.77590000
C      -46.15600000     -34.11100000     -74.01500000
C      -46.23870000     -35.21250000     -73.10790000
C      -47.16530000     -35.22060000     -72.09510000
C      -47.98610000     -34.06950000     -71.78660000
C      -47.89440000     -32.99430000     -72.65820000
H      -47.02570000     -32.16080000     -74.49710000
H      -45.64450000     -36.14440000     -73.33850000
H      -48.54580000     -33.92730000     -70.82560000
H      -48.43930000     -32.08080000     -72.42450000
C      -47.37600000     -36.42300000     -71.20190000
H      -46.72960000     -37.25980000     -71.40780000
H      -48.35940000     -36.79080000     -71.32840000
C      -45.02190000     -34.16990000     -75.24490000
H      -44.67790000     -35.22870000     -75.18850000
H      -45.31840000     -33.85860000     -76.24680000
S      -47.09570000     -35.93630000     -69.41890000
S      -43.66970000     -33.13900000     -74.58710000
C      -45.26090000     -36.27040000     -69.33100000
H      -45.11680000     -36.36570000     -68.23790000
H      -44.98640000     -37.29930000     -69.69410000
C      -43.07140000     -33.98870000     -73.10250000
H      -42.40060000     -34.75160000     -73.36210000
H      -43.96000000     -34.50920000     -72.63020000
C      -42.50370000     -33.06160000     -72.02740000
H      -42.08690000     -33.66920000     -71.21600000
H      -41.67510000     -32.50650000     -72.28580000
C      -44.47300000     -35.09480000     -69.86530000
H      -44.59400000     -35.27940000     -70.96990000
H      -43.37750000     -35.21760000     -69.79990000
C      -44.90300000     -33.64650000     -69.50220000
C      -45.52070000     -33.26820000     -68.29330000
C      -44.43290000     -32.51730000     -70.24010000
H      -45.81650000     -33.85250000     -67.43080000
C      -44.83900000     -31.30560000     -69.69110000
C      -43.49650000     -32.18570000     -71.36880000
C      -43.46240000     -30.84770000     -71.69520000
S      -45.65140000     -31.52090000     -68.17360000
S      -44.45560000     -29.84940000     -70.59720000
H      -42.92980000     -30.30360000     -72.47800000
