40
Properties=species:S:1:pos:R:3 #=T CELL(abcABC):=T 1.889726e+02=T 90.00000=T Traj:=T positionsangstrom=T Step:=T 0=T Bead:=T pbc="F F F"
C      -46.63960000     -32.36880000     -73.21920000
C      -45.80250000     -33.43130000     -73.52710000
C      -46.12970000     -34.70480000     -72.96790000
C      -47.15720000     -34.91160000     -72.05320000
C      -47.85300000     -33.72770000     -71.60750000
C      -47.61610000     -32.47830000     -72.21850000
H      -46.30550000     -31.42850000     -73.65170000
H      -45.69400000     -35.62240000     -73.34650000
H      -48.61050000     -33.75420000     -70.91500000
H      -48.22260000     -31.62130000     -71.94700000
C      -47.53720000     -36.23360000     -71.36660000
H      -46.91230000     -37.06970000     -71.61910000
H      -48.56380000     -36.48580000     -71.56400000
C      -44.80700000     -33.38480000     -74.68690000
H      -45.06140000     -34.21850000     -75.38110000
H      -44.96470000     -32.51350000     -75.31590000
S      -47.64960000     -36.00610000     -69.45520000
S      -43.05460000     -33.29690000     -74.25640000
C      -45.93480000     -36.08640000     -68.85830000
H      -46.03440000     -35.91600000     -67.78900000
H      -45.60840000     -37.09260000     -69.04050000
C      -42.90640000     -34.51630000     -72.95190000
H      -42.22370000     -35.29440000     -73.15590000
H      -43.81110000     -35.08240000     -72.87960000
C      -42.42730000     -33.99430000     -71.59220000
H      -42.40270000     -34.81050000     -70.82230000
H      -41.38950000     -33.78280000     -71.67520000
C      -44.85220000     -35.10510000     -69.53640000
H      -44.79680000     -35.47200000     -70.55230000
H      -43.87220000     -35.17850000     -69.00730000
C      -45.14570000     -33.64010000     -69.50350000
C      -46.21170000     -33.05560000     -68.82880000
C      -44.31960000     -32.70810000     -70.18230000
H      -46.97370000     -33.49930000     -68.16080000
C      -44.81200000     -31.41250000     -70.04390000
C      -43.21010000     -32.79760000     -71.07700000
C      -42.83350000     -31.58170000     -71.63660000
S      -46.30390000     -31.32360000     -69.13620000
S      -44.03930000     -30.32000000     -71.24360000
H      -41.90440000     -31.32940000     -72.18730000
