40
Properties=species:S:1:pos:R:3 #=T CELL(abcABC):=T 1.889726e+02=T 90.00000=T Traj:=T positionsangstrom=T Step:=T 0=T Bead:=T pbc="F F F"
C      -46.55590000     -32.31860000     -72.98670000
C      -45.93440000     -33.45070000     -73.42940000
C      -46.30420000     -34.71530000     -73.01310000
C      -47.37080000     -34.90180000     -72.08520000
C      -48.08920000     -33.77920000     -71.75130000
C      -47.65790000     -32.48010000     -72.13560000
H      -46.21460000     -31.26730000     -73.27000000
H      -45.71280000     -35.53510000     -73.34860000
H      -48.90020000     -33.88460000     -71.00490000
H      -48.21480000     -31.68210000     -71.68770000
C      -47.44440000     -36.21290000     -71.41240000
H      -46.55500000     -36.82320000     -71.66750000
H      -48.22750000     -36.83800000     -71.83590000
C      -44.92760000     -33.35020000     -74.54140000
H      -45.14370000     -34.29900000     -75.07880000
H      -45.02350000     -32.49060000     -75.20600000
S      -47.52830000     -36.25470000     -69.54600000
S      -43.13140000     -33.33050000     -74.18430000
C      -45.90440000     -35.99090000     -68.81050000
H      -46.14640000     -35.64200000     -67.77410000
H      -45.45950000     -37.01900000     -68.66500000
C      -42.75440000     -34.57120000     -72.78170000
H      -41.92720000     -35.27320000     -73.24100000
H      -43.69830000     -35.02980000     -72.59120000
C      -42.36440000     -33.88590000     -71.44210000
H      -42.42940000     -34.65250000     -70.61850000
H      -41.30900000     -33.59770000     -71.45290000
C      -44.83500000     -35.07880000     -69.57170000
H      -44.60800000     -35.36290000     -70.63070000
H      -43.86360000     -35.15100000     -69.06270000
C      -45.19500000     -33.68020000     -69.65780000
C      -46.13690000     -33.00920000     -68.87240000
C      -44.40440000     -32.69380000     -70.40760000
H      -47.01410000     -33.52770000     -68.48510000
C      -44.94020000     -31.43370000     -70.31580000
C      -43.13870000     -32.69050000     -71.12030000
C      -42.85850000     -31.48290000     -71.67880000
S      -46.25620000     -31.30460000     -69.26880000
S      -43.93170000     -30.23630000     -71.07190000
H      -41.85910000     -31.30410000     -72.18300000
