40
Properties=species:S:1:pos:R:3 #=T CELL(abcABC):=T 1.889726e+02=T 90.00000=T Traj:=T positionsangstrom=T Step:=T 0=T Bead:=T pbc="F F F"
C      -46.63070000     -32.49540000     -73.12830000
C      -46.10240000     -33.65420000     -73.73150000
C      -46.46600000     -34.91070000     -73.14710000
C      -47.27730000     -35.00350000     -72.01960000
C      -47.96490000     -33.82030000     -71.57270000
C      -47.63190000     -32.59100000     -72.16200000
H      -46.33150000     -31.52520000     -73.41730000
H      -45.93240000     -35.80740000     -73.51400000
H      -48.72020000     -33.99120000     -70.71400000
H      -48.17780000     -31.65560000     -71.82740000
C      -47.36830000     -36.29140000     -71.32740000
H      -46.63520000     -37.01190000     -71.63740000
H      -48.40520000     -36.66210000     -71.47420000
C      -45.10350000     -33.70220000     -74.79160000
H      -45.14310000     -34.60690000     -75.40000000
H      -45.32910000     -32.95490000     -75.54370000
S      -47.35630000     -36.33590000     -69.43490000
S      -43.28810000     -33.36180000     -74.26300000
C      -45.55280000     -36.09060000     -68.90060000
H      -45.56560000     -35.68430000     -67.90590000
H      -44.98590000     -37.05330000     -69.06750000
C      -43.03260000     -34.42020000     -72.85880000
H      -42.41500000     -35.30300000     -73.06060000
H      -44.05620000     -34.87870000     -72.48630000
C      -42.34100000     -33.62530000     -71.78220000
H      -41.95480000     -34.36860000     -71.08920000
H      -41.40590000     -33.19170000     -72.22880000
C      -44.77400000     -35.09650000     -69.79000000
H      -44.76950000     -35.31760000     -70.83770000
H      -43.71200000     -35.11990000     -69.41720000
C      -45.06510000     -33.60070000     -69.61880000
C      -46.19200000     -33.10460000     -69.04390000
C      -44.29950000     -32.54720000     -70.25820000
H      -46.85160000     -33.67620000     -68.45040000
C      -44.86370000     -31.27150000     -70.08810000
C      -43.15260000     -32.45100000     -71.20760000
C      -42.80240000     -31.14580000     -71.48070000
S      -46.31960000     -31.37900000     -69.07680000
S      -43.95400000     -30.00080000     -70.88520000
H      -42.00900000     -30.96700000     -72.14000000
