40
Properties=species:S:1:pos:R:3 #=T CELL(abcABC):=T 1.889726e+02=T 90.00000=T Traj:=T positionsangstrom=T Step:=T 0=T Bead:=T pbc="F F F"
C      -46.76320000     -32.47170000     -73.08860000
C      -45.94590000     -33.57060000     -73.43150000
C      -46.12290000     -34.84550000     -72.87450000
C      -47.06380000     -34.96780000     -71.87790000
C      -47.77470000     -33.80660000     -71.40860000
C      -47.61410000     -32.54440000     -71.99420000
H      -46.67140000     -31.53290000     -73.70430000
H      -45.67340000     -35.77250000     -73.28430000
H      -48.55280000     -34.04950000     -70.56310000
H      -48.21970000     -31.63240000     -71.67620000
C      -47.50330000     -36.34220000     -71.38210000
H      -46.78560000     -37.14670000     -71.74170000
H      -48.50500000     -36.58320000     -71.76200000
C      -44.98790000     -33.39730000     -74.63660000
H      -45.15470000     -34.17810000     -75.39210000
H      -45.19920000     -32.40380000     -75.04640000
S      -47.57390000     -36.34890000     -69.51050000
S      -43.13300000     -33.44960000     -74.29200000
C      -45.82690000     -36.00070000     -68.95940000
H      -45.76980000     -35.73730000     -67.92240000
H      -45.36330000     -36.95750000     -68.90660000
C      -42.99640000     -34.50680000     -72.73980000
H      -42.32490000     -35.28410000     -73.00940000
H      -43.90600000     -34.98460000     -72.49650000
C      -42.33990000     -33.76250000     -71.57960000
H      -42.27640000     -34.43150000     -70.76970000
H      -41.35460000     -33.43140000     -72.01310000
C      -44.91990000     -35.04680000     -69.83590000
H      -44.86900000     -35.41930000     -70.89280000
H      -43.93300000     -35.33800000     -69.48920000
C      -45.14120000     -33.59480000     -69.73150000
C      -46.24190000     -33.05940000     -69.09380000
C      -44.34760000     -32.60890000     -70.34380000
H      -47.07800000     -33.50790000     -68.61380000
C      -44.85830000     -31.34440000     -70.23950000
C      -43.14640000     -32.53450000     -71.17430000
C      -42.80050000     -31.22940000     -71.55530000
S      -46.29010000     -31.29500000     -69.26560000
S      -43.96250000     -30.06670000     -70.96910000
H      -42.13300000     -30.99350000     -72.38940000
