40
Properties=species:S:1:pos:R:3 #=T CELL(abcABC):=T 1.889726e+02=T 90.00000=T Traj:=T positionsangstrom=T Step:=T 0=T Bead:=T pbc="F F F"
C      -41.06710000     -33.64100000     -70.19850000
C      -41.78530000     -34.11720000     -71.29200000
C      -42.40220000     -33.20700000     -72.21190000
C      -42.20950000     -31.85870000     -71.98110000
C      -41.39710000     -31.41090000     -70.88650000
C      -40.81440000     -32.31120000     -70.00370000
H      -40.62940000     -34.34190000     -69.49340000
H      -43.01970000     -33.49840000     -73.10420000
H      -41.39310000     -30.32420000     -70.67290000
H      -40.43470000     -31.87030000     -69.06750000
C      -42.77410000     -30.80250000     -72.92200000
H      -43.15950000     -31.18900000     -73.84590000
H      -41.89950000     -30.09400000     -73.15860000
C      -41.89970000     -35.62140000     -71.34830000
H      -40.90200000     -36.07240000     -71.67210000
H      -41.82880000     -36.11020000     -70.38670000
S      -44.16210000     -29.82340000     -72.09050000
S      -43.18210000     -36.48410000     -72.36500000
C      -45.64730000     -30.96900000     -72.12960000
H      -46.49370000     -30.40850000     -72.52480000
H      -45.43160000     -31.79170000     -72.78870000
C      -44.79990000     -36.30220000     -71.42220000
H      -44.69880000     -36.97900000     -70.57220000
H      -45.50180000     -36.85660000     -72.01330000
C      -45.28590000     -34.93470000     -71.14840000
H      -44.81180000     -34.40630000     -70.29280000
H      -45.06390000     -34.26270000     -72.00450000
C      -46.02890000     -31.47450000     -70.69740000
H      -46.09760000     -30.63370000     -69.97620000
H      -45.29230000     -32.14610000     -70.31170000
C      -47.34910000     -32.18150000     -70.75750000
C      -48.50040000     -31.53330000     -70.50180000
C      -47.57290000     -33.61110000     -70.85690000
H      -48.73450000     -30.44660000     -70.45480000
C      -48.95030000     -33.88870000     -70.79750000
C      -46.82900000     -34.87230000     -71.00700000
C      -47.59920000     -35.95190000     -70.99870000
S      -49.96300000     -32.48470000     -70.58610000
S      -49.36700000     -35.62780000     -70.98240000
H      -47.23690000     -37.00370000     -71.15790000
