40
Properties=species:S:1:pos:R:3 #=T CELL(abcABC):=T 1.889726e+02=T 90.00000=T Traj:=T positionsangstrom=T Step:=T 0=T Bead:=T pbc="F F F"
C      -40.98840000     -33.04710000     -70.05760000
C      -41.64540000     -33.64730000     -71.22330000
C      -42.31780000     -32.82590000     -72.11260000
C      -42.31370000     -31.45810000     -71.90920000
C      -41.60920000     -30.87330000     -70.81030000
C      -40.91830000     -31.68130000     -69.89650000
H      -40.60470000     -33.79100000     -69.30660000
H      -42.72000000     -33.31170000     -72.99450000
H      -41.55180000     -29.77430000     -70.66980000
H      -40.39960000     -31.40520000     -68.95770000
C      -43.02130000     -30.54440000     -72.88970000
H      -43.16940000     -30.93130000     -73.89090000
H      -42.40340000     -29.67360000     -73.01800000
C      -41.55240000     -35.16390000     -71.48700000
H      -40.66610000     -35.25840000     -72.16680000
H      -41.40950000     -35.62610000     -70.51140000
S      -44.66860000     -29.97770000     -72.27760000
S      -43.06450000     -35.98990000     -72.21740000
C      -45.46350000     -31.57500000     -72.07530000
H      -45.91290000     -31.87860000     -73.03430000
H      -44.70750000     -32.32300000     -71.96130000
C      -44.21440000     -35.99140000     -70.86970000
H      -43.62950000     -35.94740000     -69.94820000
H      -44.85140000     -36.80530000     -70.90670000
C      -45.14600000     -34.71960000     -70.93050000
H      -44.83010000     -33.94990000     -70.15330000
H      -45.03590000     -34.43530000     -71.95820000
C      -46.39640000     -31.49470000     -70.91190000
H      -46.70920000     -30.40410000     -70.93900000
H      -45.79970000     -31.67600000     -70.01140000
C      -47.57490000     -32.41960000     -70.98320000
C      -48.86040000     -31.89300000     -70.94170000
C      -47.56920000     -33.91240000     -70.94340000
H      -48.98820000     -30.82720000     -70.99000000
C      -48.88630000     -34.34470000     -70.88610000
C      -46.66560000     -35.01470000     -70.82820000
C      -47.29380000     -36.28720000     -70.82060000
S      -50.14630000     -33.14680000     -70.92390000
S      -49.05250000     -36.07940000     -70.86680000
H      -46.70140000     -37.19610000     -70.71180000
