40
Properties=species:S:1:pos:R:3 #=T CELL(abcABC):=T 1.889726e+02=T 90.00000=T Traj:=T positionsangstrom=T Step:=T 0=T Bead:=T pbc="F F F"
C      -41.36580000     -32.50160000     -69.60270000
C      -41.93420000     -33.23510000     -70.68270000
C      -42.69750000     -32.56000000     -71.70250000
C      -42.82660000     -31.15310000     -71.68730000
C      -42.21660000     -30.45670000     -70.62670000
C      -41.49410000     -31.12170000     -69.60270000
H      -40.75770000     -33.04880000     -68.93960000
H      -42.92220000     -33.17020000     -72.59690000
H      -42.35250000     -29.37660000     -70.56940000
H      -41.06850000     -30.51870000     -68.79100000
C      -43.55910000     -30.39540000     -72.80280000
H      -43.77310000     -31.09740000     -73.55010000
H      -42.99880000     -29.57530000     -73.19760000
C      -41.71740000     -34.72890000     -70.59560000
H      -40.66190000     -34.95510000     -70.30710000
H      -42.28010000     -35.07840000     -69.70810000
S      -45.14980000     -29.53040000     -72.28770000
S      -42.18070000     -35.61440000     -72.11380000
C      -46.33660000     -30.92820000     -72.40400000
H      -47.31940000     -30.47090000     -72.51150000
H      -46.19950000     -31.50670000     -73.32880000
C      -43.91570000     -36.06060000     -71.70020000
H      -43.89350000     -36.73000000     -70.84860000
H      -44.23340000     -36.62610000     -72.50240000
C      -44.90550000     -34.90880000     -71.40380000
H      -44.59770000     -34.21090000     -70.56610000
H      -44.74520000     -34.33450000     -72.35270000
C      -46.27900000     -31.91220000     -71.28090000
H      -46.27600000     -31.32380000     -70.31610000
H      -45.37070000     -32.47670000     -71.25490000
C      -47.48890000     -32.86060000     -71.22310000
C      -48.83570000     -32.41690000     -71.13910000
C      -47.44200000     -34.31250000     -71.12210000
H      -49.11450000     -31.37620000     -71.17320000
C      -48.71180000     -34.89610000     -70.99690000
C      -46.35040000     -35.27900000     -71.22840000
C      -46.79290000     -36.53690000     -71.22720000
S      -49.98770000     -33.71820000     -70.96790000
S      -48.55410000     -36.62700000     -70.69990000
H      -46.24440000     -37.41350000     -71.11670000
