40
Properties=species:S:1:pos:R:3 #=T CELL(abcABC):=T 1.889726e+02=T 90.00000=T Traj:=T positionsangstrom=T Step:=T 0=T Bead:=T pbc="F F F"
C      -43.54690000     -30.02520000     -72.77350000
C      -43.63050000     -30.65310000     -71.51670000
C      -42.96420000     -31.84110000     -71.23730000
C      -42.13450000     -32.43520000     -72.19920000
C      -42.04590000     -31.80090000     -73.49170000
C      -42.81920000     -30.67900000     -73.79270000
H      -44.01290000     -29.14590000     -73.07370000
H      -43.03490000     -32.34280000     -70.23210000
H      -41.33970000     -32.15660000     -74.22250000
H      -42.65800000     -30.30340000     -74.80590000
C      -41.49350000     -33.78760000     -71.91980000
H      -41.61460000     -33.87280000     -70.82960000
H      -40.48530000     -33.65250000     -72.06980000
C      -44.53160000     -30.07030000     -70.46310000
H      -44.25510000     -30.63200000     -69.58340000
H      -44.27730000     -28.98010000     -70.21920000
S      -42.18610000     -35.14360000     -72.96120000
S      -46.30770000     -30.23480000     -70.82260000
C      -43.97810000     -35.25720000     -72.39650000
H      -44.55530000     -34.49610000     -72.84850000
H      -44.40870000     -36.16810000     -72.80920000
C      -46.45060000     -31.19640000     -72.34660000
H      -45.73010000     -30.81210000     -73.07410000
H      -47.45360000     -30.93520000     -72.89310000
C      -46.21870000     -32.66650000     -72.16430000
H      -46.15650000     -33.08290000     -73.15870000
H      -45.24790000     -32.78460000     -71.77290000
C      -44.20690000     -35.21920000     -70.91180000
H      -43.88390000     -34.23640000     -70.51740000
H      -43.54480000     -35.98060000     -70.51780000
C      -45.66290000     -35.53150000     -70.46590000
C      -45.87750000     -36.64500000     -69.69490000
C      -46.86220000     -34.71250000     -70.58480000
H      -45.12820000     -37.41050000     -69.49150000
C      -47.94350000     -35.22630000     -69.90600000
C      -47.10680000     -33.42980000     -71.23900000
C      -48.41190000     -33.05110000     -71.04530000
S      -47.57600000     -36.79900000     -69.20840000
S      -49.36310000     -34.20610000     -70.10350000
H      -48.89950000     -32.14150000     -71.26150000
