40
Properties=species:S:1:pos:R:3 #=T CELL(abcABC):=T 1.889726e+02=T 90.00000=T Traj:=T positionsangstrom=T Step:=T 0=T Bead:=T pbc="F F F"
C      -47.32670000     -31.61580000     -71.53360000
C      -47.45540000     -32.52900000     -70.48970000
C      -46.39240000     -32.62470000     -69.55980000
C      -45.22820000     -31.85490000     -69.57270000
C      -45.11020000     -30.92780000     -70.61350000
C      -46.13450000     -30.89120000     -71.68100000
H      -48.17780000     -31.42450000     -72.20190000
H      -46.50390000     -33.28120000     -68.67540000
H      -44.23170000     -30.24750000     -70.69380000
H      -46.03400000     -30.16120000     -72.45680000
C      -44.13790000     -31.88060000     -68.54390000
H      -44.42170000     -31.25320000     -67.65440000
H      -43.25940000     -31.47820000     -69.00520000
C      -48.71790000     -33.41100000     -70.29600000
H      -48.81240000     -33.73020000     -69.29640000
H      -49.63130000     -32.97720000     -70.56890000
S      -43.71980000     -33.54720000     -67.78960000
S      -48.65060000     -34.84570000     -71.47060000
C      -42.73200000     -34.59370000     -68.90630000
H      -41.74610000     -34.23940000     -69.25440000
H      -42.59060000     -35.52340000     -68.30980000
C      -47.12360000     -35.59330000     -70.75050000
H      -47.29400000     -36.53040000     -70.23150000
H      -46.53690000     -34.84630000     -70.22270000
C      -46.23230000     -35.98210000     -71.97330000
H      -45.41460000     -36.67630000     -71.55820000
H      -46.81690000     -36.57030000     -72.62890000
C      -43.51410000     -35.02170000     -70.23350000
H      -44.55450000     -35.32040000     -70.03450000
H      -43.02070000     -35.83740000     -70.74620000
C      -43.62810000     -34.01420000     -71.36040000
C      -42.60490000     -33.03890000     -71.55650000
C      -44.54580000     -33.96240000     -72.45990000
H      -41.66650000     -32.84380000     -70.94040000
C      -44.23620000     -33.03530000     -73.48490000
C      -45.71890000     -34.79880000     -72.75520000
C      -46.33870000     -34.37650000     -73.91010000
S      -42.75390000     -32.13280000     -73.06520000
S      -45.41520000     -33.04810000     -74.71260000
H      -47.08600000     -34.98730000     -74.39940000
