40
Properties=species:S:1:pos:R:3 #=T CELL(abcABC):=T 1.889726e+02=T 90.00000=T Traj:=T positionsangstrom=T Step:=T 0=T Bead:=T pbc="F F F"
C      -44.23720000     -37.51600000     -72.82210000
C      -43.91330000     -36.59970000     -71.80890000
C      -44.88140000     -36.28340000     -70.87680000
C      -46.15940000     -36.86720000     -70.90460000
C      -46.44880000     -37.80450000     -71.87330000
C      -45.48050000     -38.20940000     -72.81940000
H      -43.58460000     -37.82460000     -73.61870000
H      -44.71040000     -35.46320000     -70.12330000
H      -47.45970000     -38.22140000     -71.91360000
H      -45.74710000     -39.00640000     -73.57480000
C      -47.20940000     -36.43800000     -69.92870000
H      -47.59290000     -37.38450000     -69.40530000
H      -48.04820000     -36.01200000     -70.46480000
C      -42.66420000     -35.85490000     -71.85010000
H      -42.50150000     -35.16050000     -70.96130000
H      -41.75540000     -36.50390000     -71.83930000
S      -46.72160000     -35.44940000     -68.42890000
S      -42.48610000     -34.75120000     -73.45880000
C      -47.04040000     -33.64240000     -68.79640000
H      -48.12810000     -33.61780000     -68.96090000
H      -46.85040000     -33.14880000     -67.79490000
C      -43.05600000     -33.10530000     -72.91810000
H      -42.71680000     -32.46620000     -73.74890000
H      -42.76710000     -32.68710000     -71.94650000
C      -44.62840000     -32.87430000     -72.96390000
H      -44.97680000     -32.97980000     -74.01370000
H      -45.13990000     -33.70130000     -72.36650000
C      -46.14110000     -33.15910000     -69.92760000
H      -46.31450000     -33.70700000     -70.85640000
H      -45.09900000     -33.48200000     -69.48520000
C      -46.13640000     -31.66270000     -70.10840000
C      -46.78480000     -30.74940000     -69.28350000
C      -45.55060000     -31.00760000     -71.25010000
H      -47.29720000     -30.96630000     -68.30630000
C      -45.84560000     -29.67150000     -71.30810000
C      -44.93910000     -31.50320000     -72.47610000
C      -44.69840000     -30.46540000     -73.33820000
S      -46.70650000     -29.08050000     -69.82390000
S      -45.23110000     -28.86080000     -72.77440000
H      -44.07770000     -30.37220000     -74.26900000
