40
Properties=species:S:1:pos:R:3 #=T CELL(abcABC):=T 1.889726e+02=T 90.00000=T Traj:=T positionsangstrom=T Step:=T 0=T Bead:=T pbc="F F F"
C      -44.31360000     -37.89790000     -72.67010000
C      -43.97070000     -36.71510000     -72.03170000
C      -44.80300000     -36.28690000     -70.97610000
C      -46.11160000     -36.78670000     -70.88300000
C      -46.46520000     -37.97980000     -71.60790000
C      -45.56530000     -38.52380000     -72.51110000
H      -43.68680000     -38.39520000     -73.34960000
H      -44.51400000     -35.47800000     -70.47440000
H      -47.49490000     -38.26610000     -71.51480000
H      -45.76760000     -39.38760000     -73.04770000
C      -47.13330000     -36.19610000     -69.96960000
H      -47.80340000     -36.95680000     -69.66940000
H      -47.88390000     -35.53110000     -70.49270000
C      -42.59820000     -36.04110000     -72.07280000
H      -42.41120000     -35.50830000     -71.12820000
H      -41.69890000     -36.74430000     -72.14570000
S      -46.56640000     -35.33210000     -68.41900000
S      -42.49980000     -34.64090000     -73.37550000
C      -46.93550000     -33.56610000     -68.72910000
H      -48.03720000     -33.34550000     -68.87520000
H      -46.60250000     -33.04920000     -67.83140000
C      -43.22750000     -33.27770000     -72.50730000
H      -42.47150000     -32.43470000     -72.68340000
H      -43.21870000     -33.50150000     -71.42090000
C      -44.64240000     -32.96480000     -72.94690000
H      -44.71950000     -33.15370000     -74.03870000
H      -45.31430000     -33.75100000     -72.51490000
C      -46.20070000     -33.06290000     -69.97990000
H      -46.60660000     -33.63080000     -70.90190000
H      -45.13440000     -33.31510000     -69.94000000
C      -46.22730000     -31.60000000     -70.17600000
C      -46.76770000     -30.64220000     -69.37130000
C      -45.62500000     -31.02930000     -71.37930000
H      -47.30090000     -30.76060000     -68.45120000
C      -45.85210000     -29.62890000     -71.40060000
C      -45.02260000     -31.54740000     -72.58630000
C      -44.73360000     -30.41490000     -73.37690000
S      -46.65560000     -28.98680000     -69.96810000
S      -45.26720000     -28.87050000     -72.77710000
H      -44.54100000     -30.49850000     -74.38950000
