40
Properties=species:S:1:pos:R:3 #=T CELL(abcABC):=T 1.889726e+02=T 90.00000=T Traj:=T positionsangstrom=T Step:=T 0=T Bead:=T pbc="F F F"
C      -42.36510000     -33.11320000     -68.94490000
C      -41.92340000     -33.39260000     -70.25660000
C      -42.21830000     -32.40760000     -71.25600000
C      -42.91880000     -31.22240000     -70.92570000
C      -43.18020000     -30.91460000     -69.63080000
C      -42.97760000     -31.87430000     -68.61570000
H      -42.11470000     -33.74150000     -68.04170000
H      -41.96580000     -32.52220000     -72.29600000
H      -43.62370000     -30.03030000     -69.34370000
H      -43.21780000     -31.65660000     -67.57600000
C      -43.06440000     -30.32080000     -72.14470000
H      -42.67900000     -30.84210000     -73.00670000
H      -42.54200000     -29.36110000     -72.04680000
C      -41.32410000     -34.70820000     -70.71400000
H      -40.25980000     -34.65300000     -70.90810000
H      -41.43710000     -35.44420000     -69.84830000
S      -44.74160000     -29.63410000     -72.48240000
S      -42.23790000     -35.46030000     -72.12550000
C      -45.90760000     -31.13560000     -72.52390000
H      -46.83910000     -30.86490000     -73.02880000
H      -45.50940000     -31.83300000     -73.28130000
C      -43.92690000     -35.83150000     -71.57260000
H      -43.85740000     -36.01230000     -70.49170000
H      -44.13230000     -36.72150000     -72.13130000
C      -44.92200000     -34.73560000     -71.90100000
H      -44.65280000     -33.83710000     -71.30830000
H      -44.75070000     -34.42540000     -72.86910000
C      -46.27320000     -31.69540000     -71.12440000
H      -46.53220000     -30.85990000     -70.45330000
H      -45.28640000     -32.06480000     -70.69160000
C      -47.43600000     -32.73190000     -71.15620000
C      -48.71320000     -32.33770000     -70.86510000
C      -47.38230000     -34.18400000     -71.40760000
H      -48.88800000     -31.43130000     -70.25890000
C      -48.64270000     -34.80190000     -71.34270000
C      -46.33370000     -35.14280000     -71.83010000
C      -46.81600000     -36.41110000     -72.04460000
S      -49.84140000     -33.62250000     -70.95610000
S      -48.51410000     -36.50290000     -71.65700000
H      -46.26700000     -37.28300000     -72.44350000
