40
Properties=species:S:1:pos:R:3 #=T CELL(abcABC):=T 1.889726e+02=T 90.00000=T Traj:=T positionsangstrom=T Step:=T 0=T Bead:=T pbc="F F F"
C      -44.25450000     -37.58300000     -72.79240000
C      -43.88820000     -36.68730000     -71.82410000
C      -44.86040000     -36.23380000     -70.93600000
C      -46.13260000     -36.84620000     -70.98090000
C      -46.42750000     -37.89540000     -71.83550000
C      -45.43400000     -38.30060000     -72.77980000
H      -43.59090000     -37.65260000     -73.63270000
H      -44.64290000     -35.64190000     -70.06050000
H      -47.30870000     -38.44060000     -71.73910000
H      -45.53510000     -39.13050000     -73.47640000
C      -47.19340000     -36.40390000     -69.92150000
H      -47.83100000     -37.25650000     -69.58490000
H      -47.75210000     -35.68920000     -70.53140000
C      -42.55040000     -35.92360000     -72.03790000
H      -42.14360000     -35.42610000     -71.17200000
H      -41.94800000     -36.72770000     -72.37790000
S      -46.60640000     -35.47570000     -68.40990000
S      -42.55420000     -34.76660000     -73.42360000
C      -47.08430000     -33.68750000     -68.74630000
H      -48.13270000     -33.63100000     -69.00690000
H      -47.00590000     -33.12460000     -67.81740000
C      -43.07760000     -33.16320000     -72.63200000
H      -42.54850000     -32.39190000     -73.18100000
H      -42.68980000     -33.07670000     -71.61200000
C      -44.60550000     -32.96300000     -72.77030000
H      -44.91120000     -33.17200000     -73.73670000
H      -45.08930000     -33.62100000     -72.11050000
C      -46.28840000     -33.07840000     -69.91090000
H      -46.53040000     -33.63970000     -70.79520000
H      -45.23120000     -33.28950000     -69.83060000
C      -46.26780000     -31.59290000     -70.15500000
C      -46.80700000     -30.68730000     -69.28350000
C      -45.70760000     -30.95630000     -71.35120000
H      -47.46970000     -30.83760000     -68.43200000
C      -45.96190000     -29.59980000     -71.42510000
C      -44.98940000     -31.49010000     -72.48480000
C      -44.76460000     -30.48530000     -73.40760000
S      -46.60160000     -28.99320000     -69.85920000
S      -45.20430000     -28.82700000     -72.78960000
H      -44.37840000     -30.52980000     -74.42500000
