40
Properties=species:S:1:pos:R:3 #=T CELL(abcABC):=T 1.889726e+02=T 90.00000=T Traj:=T positionsangstrom=T Step:=T 0=T Bead:=T pbc="F F F"
C      -42.70390000     -32.93080000     -69.09800000
C      -42.04440000     -33.21960000     -70.35570000
C      -42.23720000     -32.25560000     -71.39020000
C      -42.84020000     -31.02250000     -71.17430000
C      -43.23180000     -30.66540000     -69.79660000
C      -43.13750000     -31.62360000     -68.80780000
H      -42.58920000     -33.64030000     -68.29740000
H      -41.86090000     -32.49010000     -72.41470000
H      -43.52040000     -29.60270000     -69.54020000
H      -43.39390000     -31.42450000     -67.73210000
C      -43.15280000     -30.13640000     -72.34700000
H      -42.83120000     -30.59930000     -73.29450000
H      -42.71760000     -29.12610000     -72.32200000
C      -41.32200000     -34.49000000     -70.66750000
H      -40.38140000     -34.22620000     -71.26270000
H      -40.98230000     -35.05100000     -69.78150000
S      -44.99600000     -29.87320000     -72.59910000
S      -42.09870000     -35.64890000     -72.00670000
C      -45.57740000     -31.59620000     -72.28900000
H      -46.34750000     -31.67980000     -73.10820000
H      -44.68910000     -32.21140000     -72.50090000
C      -43.91410000     -35.91600000     -71.80830000
H      -44.07030000     -36.46360000     -70.84710000
H      -44.18190000     -36.58200000     -72.67480000
C      -44.81360000     -34.69400000     -71.96480000
H      -44.62130000     -34.05160000     -71.20380000
H      -44.60670000     -34.21950000     -72.89860000
C      -46.32160000     -31.73740000     -70.90780000
H      -46.84250000     -30.79160000     -70.60460000
H      -45.58320000     -31.83400000     -70.08250000
C      -47.38320000     -32.74410000     -71.01440000
C      -48.59730000     -32.37150000     -70.59520000
C      -47.32710000     -34.16860000     -71.30680000
H      -49.00320000     -31.36300000     -70.59050000
C      -48.55400000     -34.85920000     -71.10920000
C      -46.32210000     -35.02970000     -71.92270000
C      -46.81930000     -36.25830000     -72.24990000
S      -49.77540000     -33.71840000     -70.69640000
S      -48.47750000     -36.48000000     -71.65960000
H      -46.24300000     -37.10540000     -72.57550000
