40
Properties=species:S:1:pos:R:3 #=T CELL(abcABC):=T 1.889726e+02=T 90.00000=T Traj:=T positionsangstrom=T Step:=T 0=T Bead:=T pbc="F F F"
C      -47.95170000     -34.08520000     -72.00350000
C      -47.10410000     -34.51550000     -73.08150000
C      -45.94920000     -35.35830000     -72.74210000
C      -45.62190000     -35.76400000     -71.38550000
C      -46.46620000     -35.18700000     -70.40350000
C      -47.55530000     -34.39350000     -70.68850000
H      -48.79420000     -33.38910000     -72.07520000
H      -45.23610000     -35.76080000     -73.44920000
H      -46.17110000     -35.31950000     -69.38190000
H      -48.12040000     -34.09710000     -69.88590000
C      -44.50960000     -36.70860000     -71.13660000
H      -43.86570000     -36.93830000     -72.04370000
H      -44.89750000     -37.67550000     -70.80940000
C      -47.30560000     -33.99340000     -74.40290000
H      -47.00540000     -34.87980000     -75.07190000
H      -48.31810000     -33.62670000     -74.58780000
S      -43.52120000     -36.30520000     -69.58180000
S      -46.21940000     -32.58040000     -74.78270000
C      -42.25400000     -35.10820000     -70.15560000
H      -41.73030000     -34.83150000     -69.26360000
H      -41.60320000     -35.77000000     -70.81660000
C      -44.51360000     -32.91430000     -74.14310000
H      -43.83030000     -33.00590000     -75.03100000
H      -44.32610000     -33.86220000     -73.61590000
C      -43.97000000     -31.79390000     -73.29810000
H      -42.97040000     -31.97630000     -73.03970000
H      -43.91700000     -30.94150000     -74.01830000
C      -42.80110000     -33.90120000     -70.84230000
H      -43.36330000     -34.18750000     -71.76730000
H      -41.93400000     -33.35110000     -71.23860000
C      -43.71920000     -33.01070000     -70.08130000
C      -44.00400000     -33.12260000     -68.73200000
C      -44.68470000     -32.05760000     -70.70810000
H      -43.56920000     -33.80750000     -68.04320000
C      -45.65650000     -31.52760000     -69.86840000
C      -44.83160000     -31.46890000     -72.04740000
C      -45.87370000     -30.59550000     -72.05190000
S      -45.39270000     -32.19790000     -68.20410000
S      -46.68410000     -30.31380000     -70.55480000
H      -46.16630000     -29.95100000     -72.84950000
