40
Properties=species:S:1:pos:R:3 #=T CELL(abcABC):=T 1.889726e+02=T 90.00000=T Traj:=T positionsangstrom=T Step:=T 0=T Bead:=T pbc="F F F"
C      -43.45340000     -30.67430000     -74.03010000
C      -43.42050000     -30.52840000     -72.64290000
C      -42.80570000     -31.54760000     -71.89660000
C      -42.15030000     -32.60240000     -72.52970000
C      -42.23760000     -32.79770000     -73.90700000
C      -42.95600000     -31.82080000     -74.61110000
H      -43.77770000     -29.81860000     -74.61210000
H      -42.70260000     -31.51290000     -70.80750000
H      -41.69430000     -33.67200000     -74.27300000
H      -43.12570000     -31.83620000     -75.71730000
C      -41.29780000     -33.48050000     -71.74850000
H      -41.34310000     -33.15710000     -70.75740000
H      -40.30340000     -33.49490000     -72.04620000
C      -44.02880000     -29.40920000     -71.84730000
H      -43.48230000     -29.45970000     -70.91190000
H      -43.87120000     -28.45110000     -72.37990000
S      -41.96730000     -35.34630000     -71.76580000
S      -45.84980000     -29.80280000     -71.64320000
C      -43.78330000     -35.24170000     -71.65130000
H      -44.02740000     -34.41550000     -72.34130000
H      -44.21140000     -36.14270000     -72.02750000
C      -46.03790000     -31.61870000     -71.31920000
H      -45.05270000     -32.05660000     -71.65690000
H      -46.83760000     -31.87390000     -71.98580000
C      -46.26790000     -32.07320000     -69.88700000
H      -45.30310000     -32.33810000     -69.59280000
H      -46.57220000     -31.34090000     -69.17500000
C      -44.40040000     -34.96710000     -70.29360000
H      -44.14070000     -33.93950000     -69.96310000
H      -43.97260000     -35.62340000     -69.58190000
C      -45.82250000     -35.32120000     -70.28990000
C      -46.21760000     -36.63670000     -70.51120000
C      -46.99980000     -34.48870000     -70.07110000
H      -45.49740000     -37.42180000     -70.81430000
C      -48.16730000     -35.22910000     -70.16650000
C      -47.36880000     -33.10660000     -69.76080000
C      -48.72610000     -32.83000000     -69.71560000
S      -47.96080000     -36.92040000     -70.49130000
S      -49.61090000     -34.28220000     -69.83820000
H      -49.12450000     -31.85190000     -69.41940000
