40
Properties=species:S:1:pos:R:3 #=T CELL(abcABC):=T 1.889726e+02=T 90.00000=T Traj:=T positionsangstrom=T Step:=T 0=T Bead:=T pbc="F F F"
C      -42.28380000     -33.15200000     -68.96960000
C      -41.99260000     -33.52690000     -70.25760000
C      -42.35940000     -32.63550000     -71.32050000
C      -43.04300000     -31.44010000     -71.05520000
C      -43.21110000     -31.05410000     -69.69640000
C      -42.96760000     -31.96930000     -68.71080000
H      -42.19210000     -33.90750000     -68.13100000
H      -42.17820000     -32.99390000     -72.33220000
H      -43.68690000     -30.17440000     -69.38020000
H      -43.23660000     -31.76390000     -67.73570000
C      -43.23270000     -30.48080000     -72.18580000
H      -43.10210000     -30.99230000     -73.14680000
H      -42.54460000     -29.62900000     -72.03350000
C      -41.26530000     -34.87640000     -70.54860000
H      -40.27580000     -34.68350000     -70.83400000
H      -41.25700000     -35.59710000     -69.69010000
S      -44.85040000     -29.63290000     -72.24440000
S      -42.00490000     -35.63230000     -72.15370000
C      -46.00370000     -31.01180000     -72.55010000
H      -46.89650000     -30.54890000     -72.96110000
H      -45.40200000     -31.67360000     -73.20530000
C      -43.83430000     -35.80490000     -71.68640000
H      -43.74360000     -35.83150000     -70.55780000
H      -44.26330000     -36.77410000     -72.03780000
C      -44.83240000     -34.66120000     -72.02720000
H      -44.47770000     -33.71550000     -71.50990000
H      -44.78360000     -34.39890000     -73.07590000
C      -46.35660000     -31.65230000     -71.18710000
H      -46.59690000     -30.76820000     -70.57720000
H      -45.53510000     -32.10360000     -70.69190000
C      -47.53410000     -32.60890000     -71.29200000
C      -48.81800000     -32.15980000     -71.11970000
C      -47.31530000     -34.01990000     -71.43200000
H      -49.11050000     -31.10650000     -71.10010000
C      -48.54380000     -34.63340000     -71.32710000
C      -46.24800000     -34.97940000     -71.69020000
C      -46.73080000     -36.30090000     -71.82140000
S      -49.91590000     -33.58390000     -71.02220000
S      -48.44490000     -36.36060000     -71.53910000
H      -46.11610000     -37.16500000     -71.94210000
