40
Properties=species:S:1:pos:R:3 #=T CELL(abcABC):=T 1.889726e+02=T 90.00000=T Traj:=T positionsangstrom=T Step:=T 0=T Bead:=T pbc="F F F"
C      -47.58780000     -34.16500000     -71.75970000
C      -47.05200000     -34.72090000     -72.94190000
C      -46.01950000     -35.68480000     -72.81330000
C      -45.53780000     -35.97410000     -71.52040000
C      -46.22330000     -35.51610000     -70.40940000
C      -47.33010000     -34.66050000     -70.56080000
H      -48.19350000     -33.27460000     -71.86610000
H      -45.53680000     -36.10880000     -73.65780000
H      -45.90350000     -35.90170000     -69.50080000
H      -47.77110000     -34.31520000     -69.64790000
C      -44.39610000     -36.92710000     -71.37890000
H      -43.91000000     -37.20660000     -72.33570000
H      -44.72850000     -37.89480000     -70.96150000
C      -47.37560000     -34.25310000     -74.33480000
H      -46.75460000     -34.79390000     -75.04220000
H      -48.42510000     -34.44980000     -74.70870000
S      -43.13340000     -36.31960000     -70.20320000
S      -47.05870000     -32.47480000     -74.57890000
C      -42.15920000     -35.01190000     -71.11290000
H      -41.30680000     -34.92800000     -70.41680000
H      -41.72380000     -35.50040000     -72.05250000
C      -45.26380000     -32.45560000     -74.22740000
H      -44.76120000     -32.19560000     -75.15450000
H      -44.91730000     -33.47550000     -73.95880000
C      -44.84070000     -31.34770000     -73.26890000
H      -43.66250000     -31.32370000     -73.31720000
H      -45.02410000     -30.35270000     -73.70170000
C      -42.78130000     -33.55150000     -71.49070000
H      -43.20920000     -33.57250000     -72.44690000
H      -41.98300000     -32.81510000     -71.73910000
C      -43.71140000     -33.01650000     -70.42330000
C      -43.64600000     -33.30260000     -69.09620000
C      -44.76180000     -31.99170000     -70.67400000
H      -43.10870000     -34.01980000     -68.61120000
C      -45.36960000     -31.60480000     -69.50430000
C      -45.34140000     -31.33950000     -71.86790000
C      -46.23080000     -30.40560000     -71.49800000
S      -44.80060000     -32.34570000     -68.04110000
S      -46.44640000     -30.14270000     -69.74530000
H      -46.73150000     -29.84140000     -72.29220000
