40
Properties=species:S:1:pos:R:3 #=T CELL(abcABC):=T 1.889726e+02=T 90.00000=T Traj:=T positionsangstrom=T Step:=T 0=T Bead:=T pbc="F F F"
C      -43.56250000     -35.03390000     -67.69790000
C      -44.91690000     -34.88700000     -68.10420000
C      -45.28410000     -35.51780000     -69.26330000
C      -44.45770000     -36.36880000     -70.08870000
C      -43.10190000     -36.39850000     -69.63790000
C      -42.69650000     -35.73720000     -68.47610000
H      -43.16860000     -34.50310000     -66.86520000
H      -46.34580000     -35.37530000     -69.55720000
H      -42.31340000     -36.91050000     -70.10110000
H      -41.63150000     -35.80650000     -68.17890000
C      -44.96850000     -36.94530000     -71.37380000
H      -45.94180000     -37.30400000     -71.18800000
H      -44.33520000     -37.78580000     -71.63240000
C      -45.95110000     -34.08630000     -67.28690000
H      -46.88180000     -34.15810000     -67.76380000
H      -45.98120000     -34.32800000     -66.28360000
S      -45.13100000     -35.78010000     -72.81150000
S      -45.39110000     -32.27490000     -67.36450000
C      -43.53190000     -34.90740000     -73.14690000
H      -42.63120000     -35.52420000     -72.70340000
H      -43.35710000     -34.85720000     -74.20790000
C      -46.12900000     -31.62790000     -68.96980000
H      -46.17490000     -30.57860000     -68.90590000
H      -47.12780000     -32.05510000     -68.87370000
C      -45.43810000     -31.95620000     -70.26090000
H      -44.50440000     -31.35210000     -70.26140000
H      -45.10280000     -33.00090000     -70.37940000
C      -43.63780000     -33.50540000     -72.46970000
H      -42.65110000     -33.03820000     -72.46560000
H      -44.04130000     -33.58610000     -71.50900000
C      -44.56690000     -32.66260000     -73.31400000
C      -44.49470000     -32.61220000     -74.70240000
C      -45.72870000     -31.94500000     -72.84400000
H      -43.66130000     -33.07110000     -75.25040000
C      -46.50000000     -31.40140000     -73.88910000
C      -46.22060000     -31.63000000     -71.52390000
C      -47.40920000     -31.02330000     -71.64630000
S      -45.78360000     -31.75150000     -75.50200000
S      -47.88790000     -30.54610000     -73.28990000
H      -47.96670000     -30.71680000     -70.75310000
