40
Properties=species:S:1:pos:R:3 #=T CELL(abcABC):=T 1.889726e+02=T 90.00000=T Traj:=T positionsangstrom=T Step:=T 0=T Bead:=T pbc="F F F"
C      -47.69270000     -34.41680000     -70.52340000
C      -47.74850000     -34.54120000     -71.98140000
C      -46.77610000     -35.41260000     -72.56640000
C      -45.76860000     -36.08600000     -71.81520000
C      -45.67670000     -35.76390000     -70.48030000
C      -46.70750000     -35.07620000     -69.85880000
H      -48.39300000     -33.76120000     -69.97140000
H      -46.89070000     -35.62090000     -73.62210000
H      -44.92320000     -36.21500000     -69.84630000
H      -46.73870000     -35.04430000     -68.74800000
C      -44.72480000     -36.89700000     -72.56220000
H      -44.86480000     -36.78700000     -73.64000000
H      -45.03070000     -38.02580000     -72.45610000
C      -48.67160000     -33.68180000     -72.89980000
H      -48.60320000     -34.16180000     -73.87570000
H      -49.72270000     -33.69960000     -72.57400000
S      -42.96930000     -36.47520000     -71.93250000
S      -48.33020000     -31.87360000     -73.07080000
C      -42.52530000     -34.84610000     -72.73870000
H      -41.61260000     -34.43830000     -72.25200000
H      -42.16590000     -35.06510000     -73.78620000
C      -46.48230000     -31.84580000     -73.58420000
H      -46.47660000     -31.71240000     -74.71290000
H      -46.13870000     -32.83370000     -73.41620000
C      -45.52820000     -30.82650000     -72.97370000
H      -44.64690000     -31.01980000     -73.56500000
H      -45.72390000     -29.71810000     -73.15420000
C      -43.58560000     -33.78960000     -72.73240000
H      -44.46640000     -34.22240000     -73.11230000
H      -43.27070000     -32.94630000     -73.33380000
C      -43.71730000     -33.17240000     -71.33660000
C      -43.06130000     -33.73390000     -70.26430000
C      -44.55240000     -32.09050000     -70.86840000
H      -42.44740000     -34.59170000     -70.28950000
C      -44.48100000     -31.80420000     -69.47730000
C      -45.35880000     -30.97600000     -71.50830000
C      -45.72780000     -29.97990000     -70.59140000
S      -43.29130000     -32.93560000     -68.67690000
S      -45.32790000     -30.46430000     -68.87860000
H      -46.26780000     -29.06870000     -70.79690000
