40
Properties=species:S:1:pos:R:3 #=T CELL(abcABC):=T 1.889726e+02=T 90.00000=T Traj:=T positionsangstrom=T Step:=T 0=T Bead:=T pbc="F F F"
C      -47.53510000     -31.67130000     -71.98600000
C      -47.83500000     -32.43550000     -70.82810000
C      -46.90500000     -32.44390000     -69.76970000
C      -45.77250000     -31.62060000     -69.83140000
C      -45.47560000     -30.88810000     -70.98010000
C      -46.41830000     -30.85510000     -71.99760000
H      -48.19470000     -31.79890000     -72.84250000
H      -47.00390000     -33.04210000     -68.86280000
H      -44.53690000     -30.35500000     -71.13920000
H      -46.22420000     -30.34380000     -72.98950000
C      -44.81690000     -31.66060000     -68.66040000
H      -45.31610000     -31.05520000     -67.87160000
H      -43.84670000     -31.16070000     -68.85280000
C      -48.88480000     -33.51700000     -70.77990000
H      -49.32690000     -33.59060000     -69.76670000
H      -49.71340000     -33.34130000     -71.39110000
S      -44.54790000     -33.36560000     -68.13400000
S      -48.24430000     -35.10320000     -71.34640000
C      -42.79380000     -33.83920000     -68.73350000
H      -42.20380000     -32.92430000     -68.83400000
H      -42.28380000     -34.33450000     -67.89980000
C      -46.69060000     -35.62340000     -70.54410000
H      -46.74440000     -36.29820000     -69.73970000
H      -46.20250000     -34.71090000     -70.12370000
C      -45.69690000     -36.15240000     -71.56490000
H      -44.94540000     -36.60330000     -70.88530000
H      -46.13130000     -36.89550000     -72.23590000
C      -42.69860000     -34.75700000     -69.98630000
H      -43.13440000     -35.73780000     -69.86660000
H      -41.57640000     -34.92620000     -70.07770000
C      -43.04020000     -34.09540000     -71.30060000
C      -42.20180000     -33.01870000     -71.64910000
C      -44.19860000     -34.10870000     -72.21560000
H      -41.26240000     -32.70340000     -71.20620000
C      -44.07590000     -33.14210000     -73.19960000
C      -45.28260000     -35.04930000     -72.45860000
C      -46.05910000     -34.70170000     -73.53930000
S      -42.70790000     -32.12970000     -73.07550000
S      -45.41340000     -33.27600000     -74.36130000
H      -46.74630000     -35.35570000     -74.02950000
