40
Properties=species:S:1:pos:R:3 #=T CELL(abcABC):=T 1.889726e+02=T 90.00000=T Traj:=T positionsangstrom=T Step:=T 0=T Bead:=T pbc="F F F"
C      -43.81730000     -29.79260000     -74.46060000
C      -44.41390000     -30.32710000     -73.27450000
C      -43.58110000     -31.16740000     -72.55590000
C      -42.35860000     -31.68340000     -73.03160000
C      -41.81410000     -31.16380000     -74.21100000
C      -42.60490000     -30.21840000     -74.93590000
H      -44.44290000     -29.09580000     -75.03890000
H      -44.19440000     -31.63120000     -71.82710000
H      -40.99260000     -31.57540000     -74.77810000
H      -42.24400000     -29.97460000     -75.95840000
C      -41.77800000     -32.95510000     -72.37040000
H      -41.80510000     -32.98170000     -71.28150000
H      -40.72650000     -32.96810000     -72.62750000
C      -45.70500000     -29.79230000     -72.67470000
H      -45.50590000     -29.62030000     -71.62810000
H      -45.95220000     -28.80340000     -73.11050000
S      -42.32320000     -34.60800000     -73.05330000
S      -47.24890000     -31.00570000     -72.63940000
C      -44.08400000     -34.80160000     -72.36290000
H      -44.56620000     -33.96610000     -72.91740000
H      -44.48340000     -35.71210000     -72.71290000
C      -46.80280000     -32.50430000     -71.62780000
H      -46.00470000     -33.04430000     -72.19520000
H      -47.65560000     -33.22170000     -71.66970000
C      -46.41600000     -32.23170000     -70.14970000
H      -45.29950000     -32.05820000     -70.12040000
H      -46.86460000     -31.33220000     -69.71060000
C      -44.19350000     -34.73140000     -70.85420000
H      -44.04390000     -33.67150000     -70.55650000
H      -43.25690000     -35.25240000     -70.40660000
C      -45.39900000     -35.35910000     -70.20330000
C      -45.45550000     -36.76020000     -70.14190000
C      -46.49020000     -34.72460000     -69.51310000
H      -44.67000000     -37.32330000     -70.68420000
C      -47.30040000     -35.67870000     -68.91870000
C      -46.88360000     -33.36810000     -69.25660000
C      -47.93010000     -33.32850000     -68.34180000
S      -46.89660000     -37.30760000     -69.32780000
S      -48.39550000     -34.96500000     -67.73810000
H      -48.45580000     -32.46140000     -68.11800000
