40
Properties=species:S:1:pos:R:3 #=T CELL(abcABC):=T 1.889726e+02=T 90.00000=T Traj:=T positionsangstrom=T Step:=T 0=T Bead:=T pbc="F F F"
C      -45.35960000     -30.97980000     -74.64620000
C      -44.76530000     -30.66880000     -73.37630000
C      -43.60540000     -31.35040000     -72.95370000
C      -42.89850000     -32.26150000     -73.76190000
C      -43.51270000     -32.53900000     -75.04190000
C      -44.71220000     -31.94580000     -75.42180000
H      -46.26360000     -30.44480000     -75.01880000
H      -43.16200000     -30.93950000     -72.00840000
H      -43.01730000     -33.32040000     -75.63090000
H      -45.01190000     -32.26320000     -76.38950000
C      -41.75830000     -32.86410000     -73.08850000
H      -41.59570000     -32.40140000     -72.15120000
H      -40.85810000     -32.72090000     -73.71630000
C      -45.32090000     -29.54680000     -72.61520000
H      -44.63160000     -29.16150000     -71.82460000
H      -45.49170000     -28.70940000     -73.30140000
S      -41.89540000     -34.67090000     -72.79320000
S      -46.98830000     -29.70650000     -71.77960000
C      -43.39830000     -35.07720000     -71.82100000
H      -44.33240000     -34.94350000     -72.39740000
H      -43.18850000     -36.09630000     -71.50250000
C      -47.27400000     -31.53390000     -71.24690000
H      -46.91600000     -32.25310000     -71.99700000
H      -48.33540000     -31.66970000     -71.32450000
C      -46.66690000     -31.95330000     -69.91010000
H      -45.61350000     -31.77890000     -69.97930000
H      -47.11170000     -31.25630000     -69.19570000
C      -43.65950000     -34.21370000     -70.59850000
H      -43.98000000     -33.15310000     -70.90110000
H      -42.78340000     -34.18190000     -69.90970000
C      -44.80720000     -34.96620000     -69.83220000
C      -44.51690000     -36.24840000     -69.50490000
C      -46.15650000     -34.54310000     -69.48230000
H      -43.58760000     -36.72210000     -69.66380000
C      -46.89990000     -35.62150000     -69.00970000
C      -47.06420000     -33.39830000     -69.57160000
C      -48.32130000     -33.64610000     -69.05430000
S      -45.89140000     -37.09760000     -68.71250000
S      -48.59020000     -35.36030000     -68.68720000
H      -49.24200000     -33.11160000     -68.98690000
