40
Properties=species:S:1:pos:R:3 #=T CELL(abcABC):=T 1.889726e+02=T 90.00000=T Traj:=T positionsangstrom=T Step:=T 0=T Bead:=T pbc="F F F"
C      -47.37440000     -34.71220000     -70.16840000
C      -47.63880000     -34.40800000     -71.50670000
C      -46.62500000     -34.88240000     -72.41760000
C      -45.55540000     -35.75290000     -72.06840000
C      -45.37850000     -36.06350000     -70.73600000
C      -46.31920000     -35.51260000     -69.84280000
H      -48.02990000     -34.37870000     -69.41240000
H      -46.87830000     -34.74260000     -73.44000000
H      -44.63210000     -36.79450000     -70.49460000
H      -46.13410000     -35.71860000     -68.82300000
C      -44.66840000     -36.16980000     -73.24520000
H      -44.93760000     -35.54690000     -74.10180000
H      -44.85560000     -37.29820000     -73.40840000
C      -48.91040000     -33.69710000     -72.06300000
H      -49.11270000     -34.17500000     -73.03050000
H      -49.72760000     -33.65590000     -71.23590000
S      -42.86190000     -35.81760000     -73.10330000
S      -48.54570000     -31.78720000     -72.41000000
C      -42.46260000     -34.11830000     -73.62860000
H      -41.37300000     -34.09700000     -73.36800000
H      -42.56230000     -34.06650000     -74.71090000
C      -47.00760000     -31.85910000     -73.24590000
H      -47.16360000     -31.54080000     -74.27900000
H      -46.56070000     -32.82500000     -73.12840000
C      -45.89690000     -30.93570000     -72.63840000
H      -45.03920000     -30.93950000     -73.37600000
H      -46.21170000     -29.83070000     -72.57070000
C      -43.26880000     -32.99750000     -72.98420000
H      -44.29060000     -32.97210000     -73.42830000
H      -42.80380000     -32.05530000     -73.26250000
C      -43.53850000     -32.99890000     -71.41940000
C      -42.84690000     -33.77460000     -70.51630000
C      -44.50860000     -32.20310000     -70.68930000
H      -42.02110000     -34.45180000     -70.81480000
C      -44.39920000     -32.21260000     -69.30140000
C      -45.52630000     -31.27170000     -71.18750000
C      -46.11370000     -30.59890000     -70.18030000
S      -43.15540000     -33.41460000     -68.86050000
S      -45.60710000     -31.14010000     -68.53390000
H      -46.95790000     -29.96480000     -70.17030000
