40
Properties=species:S:1:pos:R:3 #=T CELL(abcABC):=T 1.889726e+02=T 90.00000=T Traj:=T positionsangstrom=T Step:=T 0=T Bead:=T pbc="F F F"
C      -47.48030000     -35.29460000     -70.79730000
C      -47.56950000     -34.82130000     -72.11990000
C      -46.59070000     -35.16350000     -73.05770000
C      -45.49220000     -35.92340000     -72.65580000
C      -45.40200000     -36.43240000     -71.37060000
C      -46.39350000     -36.15330000     -70.42290000
H      -48.22740000     -35.05600000     -69.96100000
H      -46.78590000     -35.13050000     -74.10600000
H      -44.51020000     -36.99110000     -71.07450000
H      -46.33150000     -36.47450000     -69.37130000
C      -44.45130000     -36.25500000     -73.72810000
H      -44.75940000     -35.95330000     -74.72030000
H      -44.33450000     -37.33030000     -73.80090000
C      -48.79170000     -33.97290000     -72.44140000
H      -48.93880000     -33.81860000     -73.55680000
H      -49.72270000     -34.48610000     -72.23140000
S      -42.89960000     -35.48180000     -73.36810000
S      -48.62720000     -32.26220000     -71.79800000
C      -43.10250000     -33.65420000     -73.80970000
H      -42.03130000     -33.31580000     -73.89240000
H      -43.49200000     -33.57070000     -74.78150000
C      -47.08610000     -31.67180000     -72.72960000
H      -47.40710000     -31.17290000     -73.69300000
H      -46.52440000     -32.61500000     -72.95160000
C      -46.33600000     -30.61710000     -71.90390000
H      -45.57610000     -30.25500000     -72.65830000
H      -47.06770000     -29.78400000     -71.64660000
C      -43.91440000     -32.75300000     -72.81340000
H      -44.89940000     -33.12260000     -73.03150000
H      -43.83540000     -31.71720000     -73.28670000
C      -43.65840000     -32.70240000     -71.39180000
C      -42.65020000     -33.30950000     -70.74180000
C      -44.61770000     -32.01470000     -70.43560000
H      -41.72910000     -33.75920000     -71.08590000
C      -44.15800000     -32.06140000     -69.15110000
C      -45.77400000     -31.12720000     -70.64480000
C      -46.24660000     -30.76740000     -69.41120000
S      -42.72890000     -33.02220000     -68.97260000
S      -45.16160000     -31.20910000     -68.03410000
H      -47.09580000     -30.08830000     -69.29410000
