40
Properties=species:S:1:pos:R:3 #=T CELL(abcABC):=T 1.889726e+02=T 90.00000=T Traj:=T positionsangstrom=T Step:=T 0=T Bead:=T pbc="F F F"
C      -42.52350000     -34.64370000     -69.21180000
C      -42.18880000     -33.75460000     -70.25920000
C      -42.52770000     -32.41310000     -70.23390000
C      -43.19120000     -31.83370000     -69.17550000
C      -43.55370000     -32.73500000     -68.13890000
C      -43.23660000     -34.08150000     -68.12430000
H      -42.22970000     -35.67900000     -69.35180000
H      -42.17690000     -31.81920000     -71.07020000
H      -44.09540000     -32.41830000     -67.24490000
H      -43.61320000     -34.72880000     -67.24990000
C      -43.52330000     -30.35140000     -69.14310000
H      -42.53990000     -29.87710000     -68.98860000
H      -44.16980000     -30.11920000     -68.26790000
C      -41.45980000     -34.24870000     -71.46280000
H      -40.66660000     -33.54690000     -71.76870000
H      -40.92620000     -35.25320000     -71.13010000
S      -44.29010000     -29.66400000     -70.67970000
S      -42.34900000     -34.55360000     -72.99560000
C      -45.89640000     -30.58560000     -70.93550000
H      -46.19060000     -30.83180000     -69.91180000
H      -46.58890000     -29.87380000     -71.32900000
C      -44.02940000     -34.93240000     -72.43170000
H      -44.19750000     -34.21900000     -71.56070000
H      -44.13810000     -36.05980000     -72.18910000
C      -44.96420000     -34.59000000     -73.52010000
H      -44.85510000     -33.54120000     -73.67220000
H      -44.84660000     -35.19330000     -74.40800000
C      -45.83220000     -31.77300000     -71.82460000
H      -45.00500000     -32.34040000     -71.35880000
H      -45.57120000     -31.48700000     -72.88940000
C      -47.14010000     -32.64260000     -71.67840000
C      -48.28260000     -32.21990000     -71.18540000
C      -47.27510000     -33.92450000     -72.32850000
H      -48.53930000     -31.26390000     -70.80320000
C      -48.45640000     -34.56360000     -72.05860000
C      -46.40360000     -34.92790000     -72.99050000
C      -47.05160000     -36.05780000     -73.22670000
S      -49.56930000     -33.45550000     -71.31770000
S      -48.59950000     -36.25380000     -72.44890000
H      -46.54680000     -36.92780000     -73.70140000
