40
Properties=species:S:1:pos:R:3 #=T CELL(abcABC):=T 1.889726e+02=T 90.00000=T Traj:=T positionsangstrom=T Step:=T 0=T Bead:=T pbc="F F F"
C      -42.40240000     -34.74330000     -69.43060000
C      -42.06540000     -33.71240000     -70.31650000
C      -42.52780000     -32.42110000     -70.18340000
C      -43.40740000     -32.06530000     -69.16780000
C      -43.81560000     -33.11180000     -68.31100000
C      -43.34210000     -34.42870000     -68.44280000
H      -41.93950000     -35.67810000     -69.52030000
H      -41.99590000     -31.74430000     -70.91020000
H      -44.42550000     -32.90830000     -67.39890000
H      -43.74720000     -35.10800000     -67.71920000
C      -43.79320000     -30.66110000     -68.91690000
H      -43.04220000     -30.15470000     -68.32180000
H      -44.65610000     -30.64090000     -68.34250000
C      -41.20790000     -34.01560000     -71.52410000
H      -40.62990000     -33.17760000     -71.85410000
H      -40.55870000     -34.84060000     -71.31410000
S      -44.14640000     -29.75030000     -70.62010000
S      -42.26110000     -34.31720000     -73.02350000
C      -45.79350000     -30.51490000     -70.94300000
H      -46.37570000     -30.59910000     -69.98160000
H      -46.39650000     -29.90270000     -71.60240000
C      -43.90090000     -34.96910000     -72.37730000
H      -44.15770000     -34.55020000     -71.42830000
H      -43.70370000     -35.97770000     -72.33440000
C      -45.03560000     -34.68650000     -73.45800000
H      -44.87410000     -33.62460000     -73.79250000
H      -44.77390000     -35.44280000     -74.16340000
C      -45.65800000     -31.96970000     -71.55090000
H      -44.91440000     -32.60270000     -71.07420000
H      -45.41270000     -31.74230000     -72.56730000
C      -47.02750000     -32.70010000     -71.56340000
C      -48.19360000     -32.27390000     -70.94770000
C      -47.21230000     -34.03490000     -72.11980000
H      -48.44110000     -31.32370000     -70.45020000
C      -48.45140000     -34.53580000     -71.88950000
C      -46.41420000     -34.94570000     -72.94980000
C      -47.21980000     -35.93120000     -73.44700000
S      -49.52620000     -33.35080000     -71.06090000
S      -48.90160000     -35.91860000     -72.88530000
H      -46.79070000     -36.74860000     -74.06180000
