40
Properties=species:S:1:pos:R:3 #=T CELL(abcABC):=T 1.889726e+02=T 90.00000=T Traj:=T positionsangstrom=T Step:=T 0=T Bead:=T pbc="F F F"
C      -46.98750000     -35.42000000     -70.42500000
C      -47.48680000     -35.08860000     -71.72720000
C      -46.57330000     -35.15990000     -72.82710000
C      -45.22320000     -35.55270000     -72.57540000
C      -44.82600000     -35.79650000     -71.33420000
C      -45.70220000     -35.80010000     -70.25830000
H      -47.51860000     -35.34120000     -69.48900000
H      -46.93220000     -35.12030000     -73.85030000
H      -43.82080000     -36.23440000     -71.22520000
H      -45.24350000     -36.10640000     -69.29110000
C      -44.35460000     -35.59750000     -73.84340000
H      -44.84580000     -35.09990000     -74.65030000
H      -44.27500000     -36.60460000     -74.24020000
C      -48.87350000     -34.48270000     -71.83210000
H      -49.28180000     -34.55100000     -72.85910000
H      -49.57580000     -34.99310000     -71.10990000
S      -42.60290000     -34.97000000     -73.80830000
S      -48.95270000     -32.61880000     -71.42070000
C      -42.70050000     -33.07460000     -73.92040000
H      -41.73530000     -32.72790000     -73.65360000
H      -42.91500000     -32.91710000     -74.97880000
C      -47.67970000     -31.86580000     -72.57600000
H      -48.21730000     -31.50650000     -73.43270000
H      -47.12130000     -32.67150000     -73.07480000
C      -46.72550000     -30.88180000     -71.88260000
H      -46.05770000     -30.48850000     -72.68770000
H      -47.38990000     -29.98750000     -71.59770000
C      -43.81350000     -32.43200000     -73.09390000
H      -44.75410000     -32.87140000     -73.41760000
H      -43.96450000     -31.40850000     -73.53700000
C      -43.69020000     -32.46080000     -71.59100000
C      -42.57920000     -32.92800000     -70.97440000
C      -44.71650000     -32.09380000     -70.56540000
H      -41.74550000     -33.29600000     -71.53070000
C      -44.37670000     -32.48780000     -69.29520000
C      -45.92850000     -31.32570000     -70.60870000
C      -46.48710000     -31.09180000     -69.40280000
S      -42.75520000     -33.09130000     -69.23620000
S      -45.49500000     -31.80020000     -68.08320000
H      -47.32200000     -30.41180000     -69.21110000
