40
Properties=species:S:1:pos:R:3 #=T CELL(abcABC):=T 1.889726e+02=T 90.00000=T Traj:=T positionsangstrom=T Step:=T 0=T Bead:=T pbc="F F F"
C      -47.69440000     -31.92950000     -71.92070000
C      -47.75830000     -32.75730000     -70.83100000
C      -46.87460000     -32.59740000     -69.75790000
C      -45.75800000     -31.78070000     -69.96970000
C      -45.64160000     -31.02390000     -71.15400000
C      -46.61990000     -31.06990000     -72.08940000
H      -48.38970000     -32.09550000     -72.71950000
H      -47.02520000     -33.20730000     -68.82040000
H      -44.91570000     -30.28750000     -71.39000000
H      -46.67560000     -30.40060000     -72.93990000
C      -44.79850000     -31.51930000     -68.82010000
H      -45.20270000     -30.77640000     -68.06600000
H      -43.89420000     -31.04890000     -69.11830000
C      -48.95140000     -33.69850000     -70.68110000
H      -49.38250000     -33.85370000     -69.70230000
H      -49.83740000     -33.40570000     -71.33450000
S      -44.41020000     -33.01240000     -67.82560000
S      -48.49470000     -35.45070000     -71.38550000
C      -42.84240000     -33.54980000     -68.50350000
H      -42.16280000     -32.65580000     -68.49040000
H      -42.41210000     -34.28480000     -67.78740000
C      -46.82380000     -35.84680000     -70.49830000
H      -47.10540000     -36.67310000     -69.89950000
H      -46.70380000     -34.99800000     -69.83550000
C      -45.62240000     -35.99080000     -71.34340000
H      -44.80760000     -36.30630000     -70.73690000
H      -45.85290000     -36.88190000     -72.04740000
C      -42.81710000     -34.29990000     -69.84990000
H      -43.42170000     -35.22300000     -69.87890000
H      -41.84650000     -34.68550000     -70.06380000
C      -43.15970000     -33.52220000     -71.13150000
C      -42.28660000     -32.57060000     -71.60760000
C      -44.15590000     -33.95820000     -72.14660000
H      -41.40220000     -32.32950000     -71.03120000
C      -43.96850000     -33.21990000     -73.33320000
C      -45.32730000     -34.79470000     -72.35960000
C      -45.86230000     -34.78390000     -73.60840000
S      -42.65030000     -32.08840000     -73.27000000
S      -45.06550000     -33.59890000     -74.61750000
H      -46.74230000     -35.23650000     -73.97870000
