40
Properties=species:S:1:pos:R:3 #=T CELL(abcABC):=T 1.889726e+02=T 90.00000=T Traj:=T positionsangstrom=T Step:=T 0=T Bead:=T pbc="F F F"
C      -45.76020000     -35.57730000     -70.41830000
C      -46.79950000     -35.49990000     -71.34950000
C      -46.50590000     -35.22660000     -72.68010000
C      -45.22660000     -34.85990000     -73.15360000
C      -44.19560000     -34.95650000     -72.22040000
C      -44.45360000     -35.41260000     -70.94100000
H      -45.92260000     -35.92720000     -69.38130000
H      -47.31720000     -35.10360000     -73.34700000
H      -43.17090000     -34.63300000     -72.42760000
H      -43.63770000     -35.43350000     -70.21220000
C      -44.90450000     -34.49950000     -74.59450000
H      -45.94870000     -34.26760000     -75.07870000
H      -44.51660000     -35.36100000     -75.15860000
C      -48.24690000     -35.69260000     -70.88970000
H      -48.80640000     -35.78540000     -71.84910000
H      -48.34940000     -36.57830000     -70.20560000
S      -43.73440000     -33.05110000     -74.82480000
S      -48.87270000     -34.18750000     -69.96630000
C      -44.70520000     -31.54700000     -74.45890000
H      -44.07070000     -30.74750000     -74.83390000
H      -45.64260000     -31.56230000     -74.98080000
C      -48.42220000     -32.78980000     -71.08800000
H      -49.39790000     -32.30770000     -71.46810000
H      -47.95310000     -33.21250000     -71.98800000
C      -47.48770000     -31.82760000     -70.29220000
H      -47.24310000     -31.07460000     -71.00560000
H      -48.01610000     -31.46300000     -69.44730000
C      -45.23230000     -31.41310000     -73.01740000
H      -46.14660000     -32.10060000     -72.93560000
H      -45.54830000     -30.43000000     -72.74770000
C      -44.33290000     -31.92630000     -71.88010000
C      -42.95900000     -31.89200000     -71.87860000
C      -44.85560000     -32.35820000     -70.53950000
H      -42.39330000     -31.70500000     -72.79280000
C      -43.78310000     -32.69590000     -69.67420000
C      -46.16000000     -32.40780000     -69.80770000
C      -45.95710000     -32.82540000     -68.54020000
S      -42.20020000     -32.39720000     -70.45210000
S      -44.26810000     -32.95160000     -67.98930000
H      -46.81630000     -32.81670000     -67.81150000
