40
Properties=species:S:1:pos:R:3 #=T CELL(abcABC):=T 1.889726e+02=T 90.00000=T Traj:=T positionsangstrom=T Step:=T 0=T Bead:=T pbc="F F F"
C      -47.63950000     -32.18600000     -72.12790000
C      -47.80990000     -32.83480000     -70.88800000
C      -46.83570000     -32.70500000     -69.91790000
C      -45.83620000     -31.68830000     -70.01830000
C      -45.76300000     -30.96720000     -71.23830000
C      -46.69300000     -31.15000000     -72.23060000
H      -48.21770000     -32.38490000     -73.01690000
H      -46.98440000     -33.17560000     -68.95400000
H      -45.00800000     -30.28810000     -71.50780000
H      -46.65570000     -30.58810000     -73.16110000
C      -44.88890000     -31.39190000     -68.94910000
H      -45.50180000     -30.70480000     -68.34770000
H      -44.03910000     -30.80350000     -69.33690000
C      -48.79260000     -33.91290000     -70.65840000
H      -48.86200000     -33.94280000     -69.59130000
H      -49.78000000     -33.61000000     -70.96140000
S      -44.39360000     -32.77590000     -67.79310000
S      -48.37440000     -35.52050000     -71.44720000
C      -42.80520000     -33.24760000     -68.62380000
H      -42.21870000     -32.36410000     -68.91540000
H      -42.22640000     -33.71620000     -67.88380000
C      -46.76370000     -35.96010000     -70.54060000
H      -46.93010000     -36.88350000     -69.96020000
H      -46.60290000     -35.09170000     -69.86740000
C      -45.53140000     -36.15130000     -71.36460000
H      -44.66890000     -36.31340000     -70.67480000
H      -45.65900000     -37.00950000     -71.97570000
C      -43.07810000     -34.23820000     -69.79510000
H      -44.02240000     -34.79040000     -69.44630000
H      -42.20600000     -34.91960000     -69.66180000
C      -43.22270000     -33.57470000     -71.09520000
C      -42.44990000     -32.50990000     -71.46830000
C      -44.10310000     -34.00390000     -72.14220000
H      -41.67330000     -32.10300000     -70.80030000
C      -43.96210000     -33.18070000     -73.28550000
C      -45.12850000     -34.98530000     -72.34540000
C      -45.74100000     -34.93160000     -73.53740000
S      -42.72000000     -31.95050000     -73.08640000
S      -45.10440000     -33.63970000     -74.53380000
H      -46.45250000     -35.63310000     -73.95950000
