40
Properties=species:S:1:pos:R:3 #=T CELL(abcABC):=T 1.889726e+02=T 90.00000=T Traj:=T positionsangstrom=T Step:=T 0=T Bead:=T pbc="F F F"
C      -42.51470000     -35.19250000     -69.67890000
C      -42.12450000     -34.21530000     -70.60470000
C      -42.26450000     -32.86310000     -70.19140000
C      -42.91040000     -32.57540000     -68.99360000
C      -43.34350000     -33.59740000     -68.10250000
C      -43.14750000     -34.90960000     -68.45190000
H      -42.34110000     -36.21100000     -70.01910000
H      -41.85150000     -32.11900000     -70.81110000
H      -43.77980000     -33.45990000     -67.15440000
H      -43.38970000     -35.70440000     -67.80290000
C      -43.12670000     -31.17920000     -68.52340000
H      -42.21420000     -30.59270000     -68.35170000
H      -43.57550000     -31.23140000     -67.51270000
C      -41.50070000     -34.58770000     -71.93190000
H      -40.45810000     -34.17560000     -71.96420000
H      -41.34370000     -35.70750000     -72.00200000
S      -44.27270000     -30.17660000     -69.53310000
S      -42.46780000     -33.87520000     -73.33140000
C      -45.83930000     -31.18580000     -69.67140000
H      -45.96380000     -31.79250000     -68.83310000
H      -46.53060000     -30.39310000     -69.63720000
C      -44.20720000     -34.46370000     -72.98460000
H      -44.42750000     -34.51730000     -71.90940000
H      -44.28730000     -35.55380000     -73.17840000
C      -45.13330000     -33.57570000     -73.82280000
H      -44.89950000     -32.54970000     -73.54210000
H      -44.91760000     -33.63300000     -74.89240000
C      -45.88290000     -31.84350000     -71.00110000
H      -45.02600000     -32.54340000     -71.27020000
H      -45.71590000     -31.10850000     -71.74610000
C      -47.20260000     -32.60500000     -71.31050000
C      -48.31940000     -32.56080000     -70.47650000
C      -47.33550000     -33.50340000     -72.34490000
H      -48.40500000     -31.93940000     -69.61950000
C      -48.58360000     -34.19710000     -72.33650000
C      -46.54640000     -33.98260000     -73.45120000
C      -47.12740000     -34.95370000     -74.20040000
S      -49.54650000     -33.69650000     -71.05090000
S      -48.71600000     -35.43090000     -73.51960000
H      -46.64410000     -35.32650000     -75.09650000
