40
Properties=species:S:1:pos:R:3 #=T CELL(abcABC):=T 1.889726e+02=T 90.00000=T Traj:=T positionsangstrom=T Step:=T 0=T Bead:=T pbc="F F F"
C      -45.91570000     -35.60540000     -70.32620000
C      -46.93100000     -35.45380000     -71.28520000
C      -46.58340000     -35.08300000     -72.59460000
C      -45.25570000     -35.00380000     -73.05730000
C      -44.24690000     -35.27450000     -72.10940000
C      -44.55490000     -35.45470000     -70.78200000
H      -46.06500000     -35.68370000     -69.26580000
H      -47.42140000     -35.00260000     -73.18600000
H      -43.16880000     -35.34980000     -72.41870000
H      -43.77530000     -35.61490000     -70.04530000
C      -44.92190000     -34.78410000     -74.57080000
H      -45.78990000     -34.77280000     -75.19220000
H      -44.32500000     -35.57930000     -74.86510000
C      -48.42390000     -35.61510000     -70.95170000
H      -49.07400000     -35.68630000     -71.85040000
H      -48.52340000     -36.46130000     -70.24560000
S      -43.77730000     -33.36840000     -74.75980000
S      -48.93430000     -34.13660000     -69.97890000
C      -44.62820000     -31.72020000     -74.51760000
H      -43.85530000     -30.99740000     -74.64110000
H      -45.41630000     -31.39320000     -75.28660000
C      -48.36670000     -32.72480000     -71.03790000
H      -49.32810000     -32.22490000     -71.35000000
H      -47.95200000     -33.08340000     -71.96270000
C      -47.36620000     -31.67250000     -70.45150000
H      -47.05380000     -30.90740000     -71.22580000
H      -48.01700000     -31.04650000     -69.66200000
C      -45.15200000     -31.48300000     -73.05000000
H      -46.01090000     -32.12400000     -72.90200000
H      -45.60940000     -30.44430000     -73.09180000
C      -44.24980000     -31.75430000     -71.81940000
C      -42.87290000     -31.87280000     -72.00470000
C      -44.72300000     -31.98360000     -70.49750000
H      -42.31440000     -31.62150000     -72.85950000
C      -43.69160000     -32.31800000     -69.62650000
C      -46.04350000     -32.12550000     -69.89450000
C      -45.96900000     -32.68950000     -68.65450000
S      -42.15290000     -32.33450000     -70.42020000
S      -44.25920000     -33.02740000     -68.13350000
H      -46.74840000     -33.02910000     -68.01440000
