40
Properties=species:S:1:pos:R:3 #=T CELL(abcABC):=T 1.889726e+02=T 90.00000=T Traj:=T positionsangstrom=T Step:=T 0=T Bead:=T pbc="F F F"
C      -45.94860000     -35.45460000     -70.18300000
C      -46.93010000     -35.33880000     -71.17020000
C      -46.46620000     -35.44570000     -72.46930000
C      -45.12050000     -35.41050000     -72.80250000
C      -44.12820000     -35.50240000     -71.82700000
C      -44.58020000     -35.61020000     -70.48810000
H      -46.29390000     -35.40540000     -69.15740000
H      -47.28120000     -35.32450000     -73.24290000
H      -43.11310000     -35.34750000     -72.14690000
H      -43.83870000     -35.79560000     -69.72390000
C      -44.70990000     -35.18640000     -74.28200000
H      -45.59650000     -34.94620000     -74.82630000
H      -44.46950000     -36.22200000     -74.75850000
C      -48.38170000     -35.18850000     -70.96940000
H      -48.88680000     -35.45320000     -71.88380000
H      -48.77560000     -35.79850000     -70.07100000
S      -43.31950000     -34.03960000     -74.53770000
S      -48.88480000     -33.45890000     -70.44820000
C      -44.18430000     -32.34590000     -74.50580000
H      -43.31460000     -31.71380000     -74.61160000
H      -44.70830000     -32.40410000     -75.47400000
C      -48.07430000     -32.42160000     -71.74950000
H      -48.68930000     -31.96910000     -72.42480000
H      -47.41870000     -33.09430000     -72.27780000
C      -47.35140000     -31.30120000     -71.05590000
H      -46.89410000     -30.55520000     -71.84250000
H      -47.99530000     -30.72090000     -70.31740000
C      -44.98890000     -32.00950000     -73.21300000
H      -45.80630000     -32.76390000     -73.11630000
H      -45.43890000     -31.03040000     -73.26770000
C      -44.17770000     -32.07930000     -71.89850000
C      -42.82910000     -32.21740000     -71.74870000
C      -44.88190000     -32.04190000     -70.60460000
H      -42.11650000     -32.31010000     -72.53580000
C      -43.99630000     -32.39750000     -69.56270000
C      -46.28230000     -31.77290000     -70.15450000
C      -46.36900000     -31.88380000     -68.81070000
S      -42.36430000     -32.56030000     -70.11070000
S      -44.82050000     -32.38930000     -68.03910000
H      -47.27710000     -31.70110000     -68.22130000
