40
Properties=species:S:1:pos:R:3 #=T CELL(abcABC):=T 1.889726e+02=T 90.00000=T Traj:=T positionsangstrom=T Step:=T 0=T Bead:=T pbc="F F F"
C      -47.59540000     -32.24490000     -72.10200000
C      -47.72060000     -32.95760000     -70.89060000
C      -46.87470000     -32.49960000     -69.83800000
C      -45.89890000     -31.51980000     -70.06340000
C      -45.84000000     -30.85440000     -71.28980000
C      -46.63590000     -31.29710000     -72.37570000
H      -48.26090000     -32.48760000     -72.98070000
H      -46.89760000     -32.96960000     -68.87100000
H      -45.11750000     -30.08400000     -71.38990000
H      -46.53130000     -30.86590000     -73.33950000
C      -44.93810000     -31.01980000     -68.94570000
H      -45.42860000     -30.33220000     -68.28040000
H      -44.07110000     -30.51170000     -69.42390000
C      -48.69350000     -34.13950000     -70.77840000
H      -48.91520000     -34.32710000     -69.64580000
H      -49.61500000     -33.97350000     -71.35460000
S      -44.33000000     -32.34410000     -67.76360000
S      -48.09640000     -35.74130000     -71.52460000
C      -42.94260000     -33.37700000     -68.49130000
H      -42.02510000     -32.82500000     -68.75400000
H      -42.77350000     -34.02680000     -67.60660000
C      -46.63940000     -36.15170000     -70.54650000
H      -46.86660000     -37.07240000     -69.91190000
H      -46.44090000     -35.37270000     -69.83130000
C      -45.39530000     -36.36060000     -71.48200000
H      -44.50690000     -36.52160000     -70.77830000
H      -45.58010000     -37.24590000     -71.99960000
C      -43.12240000     -34.32250000     -69.70970000
H      -44.00650000     -34.98970000     -69.69420000
H      -42.24910000     -34.96090000     -69.72990000
C      -43.23480000     -33.69220000     -71.07740000
C      -42.54780000     -32.53270000     -71.44300000
C      -44.17420000     -34.04450000     -72.14360000
H      -41.95860000     -31.98860000     -70.72260000
C      -44.10380000     -33.14900000     -73.21520000
C      -45.08820000     -35.15800000     -72.39750000
C      -45.64490000     -35.07930000     -73.62800000
S      -42.98040000     -31.88500000     -72.99870000
S      -45.17390000     -33.55850000     -74.48760000
H      -46.28520000     -35.84200000     -74.15880000
