40
Properties=species:S:1:pos:R:3 #=T CELL(abcABC):=T 1.889726e+02=T 90.00000=T Traj:=T positionsangstrom=T Step:=T 0=T Bead:=T pbc="F F F"
C      -46.46390000     -32.30160000     -74.57930000
C      -45.62750000     -31.39660000     -73.92030000
C      -44.26910000     -31.61600000     -73.79460000
C      -43.71160000     -32.83940000     -74.24220000
C      -44.56720000     -33.83520000     -74.85080000
C      -45.95390000     -33.51580000     -75.06810000
H      -47.46650000     -31.97660000     -74.79180000
H      -43.66450000     -30.83230000     -73.27400000
H      -44.10490000     -34.75270000     -75.09840000
H      -46.64520000     -34.28970000     -75.45570000
C      -42.26490000     -33.16390000     -74.08150000
H      -41.66210000     -32.16950000     -73.91120000
H      -41.82060000     -33.57910000     -75.03380000
C      -46.31790000     -30.17830000     -73.37030000
H      -45.58910000     -29.57030000     -72.73930000
H      -46.65560000     -29.44410000     -74.12550000
S      -41.80340000     -34.34140000     -72.75050000
S      -47.79770000     -30.34670000     -72.28870000
C      -43.36750000     -34.50920000     -71.80860000
H      -44.16520000     -34.66850000     -72.53120000
H      -43.23410000     -35.53030000     -71.37080000
C      -47.37360000     -31.72490000     -71.08980000
H      -48.23000000     -31.80830000     -70.44950000
H      -46.59900000     -31.32030000     -70.38960000
C      -46.93280000     -33.20570000     -71.50330000
H      -47.62080000     -33.57980000     -72.27790000
H      -45.98750000     -33.10000000     -72.03100000
C      -43.55380000     -33.31650000     -70.81890000
H      -44.13910000     -32.53910000     -71.32520000
H      -42.60730000     -32.88400000     -70.51940000
C      -44.25520000     -33.85880000     -69.55840000
C      -43.55180000     -34.14980000     -68.42550000
C      -45.66890000     -34.23710000     -69.49410000
H      -42.46360000     -34.11710000     -68.19080000
C      -45.88880000     -35.00280000     -68.34000000
C      -46.84490000     -34.06890000     -70.25940000
C      -47.91920000     -34.57320000     -69.61400000
S      -44.55340000     -35.12540000     -67.24860000
S      -47.57040000     -35.29810000     -67.99200000
H      -48.96010000     -34.51900000     -69.97110000
