40
Properties=species:S:1:pos:R:3 #=T CELL(abcABC):=T 1.889726e+02=T 90.00000=T Traj:=T positionsangstrom=T Step:=T 0=T Bead:=T pbc="F F F"
C      -45.04620000     -35.91230000     -71.01670000
C      -46.20260000     -35.90360000     -71.87420000
C      -46.21050000     -35.26370000     -73.13710000
C      -44.99950000     -34.65540000     -73.51800000
C      -43.88060000     -34.69600000     -72.71030000
C      -43.87620000     -35.29860000     -71.38110000
H      -45.14960000     -36.47810000     -70.05460000
H      -47.07770000     -35.06240000     -73.70060000
H      -42.85410000     -34.31800000     -72.97170000
H      -43.05840000     -35.14030000     -70.70330000
C      -44.98150000     -34.00120000     -74.88000000
H      -46.01450000     -33.71140000     -75.16640000
H      -44.43230000     -34.67450000     -75.56730000
C      -47.52830000     -36.40360000     -71.36820000
H      -48.25400000     -36.46610000     -72.20060000
H      -47.46570000     -37.36450000     -70.89160000
S      -44.01860000     -32.32310000     -74.84770000
S      -48.08500000     -35.22490000     -69.99310000
C      -45.10520000     -31.12510000     -74.07010000
H      -44.45920000     -30.25040000     -74.01630000
H      -45.95550000     -30.90680000     -74.63390000
C      -48.24960000     -33.62330000     -70.99420000
H      -49.35370000     -33.41690000     -71.32300000
H      -47.62040000     -33.58040000     -71.83200000
C      -47.87110000     -32.35490000     -70.20580000
H      -47.87840000     -31.49590000     -70.84170000
H      -48.50700000     -32.17890000     -69.37040000
C      -45.62610000     -31.40150000     -72.70930000
H      -46.40840000     -32.22570000     -72.73730000
H      -46.26930000     -30.54910000     -72.51840000
C      -44.71960000     -31.79930000     -71.56230000
C      -43.36830000     -31.71180000     -71.63840000
C      -45.21720000     -32.31870000     -70.28750000
H      -42.80330000     -31.24820000     -72.44710000
C      -44.09210000     -32.37010000     -69.38950000
C      -46.47940000     -32.50810000     -69.59500000
C      -46.22210000     -32.82820000     -68.27150000
S      -42.56400000     -32.05020000     -70.13590000
S      -44.53690000     -32.65050000     -67.78690000
H      -46.94340000     -33.07810000     -67.49390000
