40
Properties=species:S:1:pos:R:3 #=T CELL(abcABC):=T 1.889726e+02=T 90.00000=T Traj:=T positionsangstrom=T Step:=T 0=T Bead:=T pbc="F F F"
C      -44.94860000     -35.97730000     -71.02110000
C      -46.09690000     -35.90870000     -71.84610000
C      -46.01820000     -35.39280000     -73.13080000
C      -44.88900000     -34.73090000     -73.48230000
C      -43.73960000     -34.62780000     -72.63510000
C      -43.79980000     -35.29300000     -71.43420000
H      -44.87650000     -36.46870000     -70.02840000
H      -46.87900000     -35.48130000     -73.74390000
H      -42.88250000     -34.05430000     -72.94840000
H      -42.87730000     -35.18550000     -70.83230000
C      -44.90400000     -33.90480000     -74.80280000
H      -45.89430000     -33.85280000     -75.24410000
H      -44.41220000     -34.61980000     -75.52200000
C      -47.43390000     -36.38240000     -71.28190000
H      -48.15100000     -36.73820000     -72.03920000
H      -47.39720000     -37.23050000     -70.61270000
S      -44.04410000     -32.37960000     -74.90200000
S      -48.18450000     -35.10520000     -70.17590000
C      -45.13430000     -31.21150000     -74.05950000
H      -44.50550000     -30.31590000     -73.89690000
H      -45.94040000     -30.88730000     -74.78790000
C      -48.20490000     -33.48290000     -71.12720000
H      -49.11110000     -33.25940000     -71.70610000
H      -47.35620000     -33.50930000     -71.77120000
C      -47.92470000     -32.32250000     -70.07740000
H      -48.12880000     -31.37090000     -70.66800000
H      -48.64910000     -32.39980000     -69.23380000
C      -45.72510000     -31.54620000     -72.67190000
H      -46.06570000     -32.55680000     -72.87490000
H      -46.49760000     -30.78650000     -72.60820000
C      -44.87280000     -31.72040000     -71.43430000
C      -43.56700000     -31.52550000     -71.64190000
C      -45.24290000     -32.18900000     -70.15520000
H      -43.14010000     -31.21880000     -72.51920000
C      -44.09770000     -32.35440000     -69.36180000
C      -46.53240000     -32.41010000     -69.49710000
C      -46.26740000     -32.68480000     -68.15600000
S      -42.57300000     -31.99220000     -70.20930000
S      -44.53060000     -32.95040000     -67.77610000
H      -46.97610000     -32.59960000     -67.33600000
