40
Properties=species:S:1:pos:R:3 #=T CELL(abcABC):=T 1.889726e+02=T 90.00000=T Traj:=T positionsangstrom=T Step:=T 0=T Bead:=T pbc="F F F"
C      -46.49760000     -32.37620000     -74.89600000
C      -45.79010000     -31.60470000     -73.96340000
C      -44.45200000     -31.91110000     -73.82280000
C      -43.81360000     -32.87080000     -74.59950000
C      -44.54420000     -33.66010000     -75.52470000
C      -45.90210000     -33.35770000     -75.68140000
H      -47.60680000     -32.21400000     -74.96180000
H      -43.83100000     -31.33600000     -73.13180000
H      -44.00320000     -34.34000000     -76.22810000
H      -46.52530000     -33.99550000     -76.31560000
C      -42.33440000     -33.09280000     -74.40170000
H      -41.78160000     -32.13460000     -74.40480000
H      -42.02760000     -33.68470000     -75.29890000
C      -46.49050000     -30.49000000     -73.19890000
H      -45.84460000     -30.27550000     -72.30860000
H      -46.62800000     -29.58270000     -73.85730000
S      -41.80110000     -34.15460000     -72.89640000
S      -48.14970000     -30.98730000     -72.64370000
C      -43.43270000     -34.37340000     -71.98660000
H      -44.28180000     -34.45650000     -72.66450000
H      -43.20060000     -35.28220000     -71.39710000
C      -47.85140000     -31.86410000     -71.09140000
H      -48.80880000     -32.14640000     -70.66340000
H      -47.33900000     -31.15180000     -70.45670000
C      -47.09710000     -33.25460000     -71.16250000
H      -47.63680000     -33.97100000     -71.85180000
H      -46.07950000     -33.13600000     -71.66400000
C      -43.68810000     -33.33980000     -70.90620000
H      -44.42610000     -32.64470000     -71.17690000
H      -42.86560000     -32.74520000     -70.60490000
C      -44.18060000     -33.91410000     -69.53810000
C      -43.29670000     -34.47460000     -68.59920000
C      -45.52780000     -34.15390000     -69.17810000
H      -42.18010000     -34.43140000     -68.61580000
C      -45.64450000     -34.71620000     -67.89310000
C      -46.75810000     -33.78550000     -69.74360000
C      -47.77310000     -33.99820000     -68.89140000
S      -44.19170000     -35.16520000     -67.17290000
S      -47.30650000     -34.87630000     -67.43200000
H      -48.86050000     -33.91440000     -69.07810000
