40
Properties=species:S:1:pos:R:3 #=T CELL(abcABC):=T 1.889726e+02=T 90.00000=T Traj:=T positionsangstrom=T Step:=T 0=T Bead:=T pbc="F F F"
C      -45.20880000     -36.11990000     -71.15440000
C      -46.42720000     -35.70230000     -71.75630000
C      -46.37440000     -35.09330000     -72.98470000
C      -45.08500000     -34.82920000     -73.54310000
C      -43.88840000     -35.23780000     -72.93180000
C      -44.01180000     -35.89160000     -71.71000000
H      -45.33380000     -36.76900000     -70.26280000
H      -47.27320000     -34.78020000     -73.52390000
H      -42.95050000     -35.09330000     -73.43610000
H      -43.08680000     -36.15700000     -71.18460000
C      -45.00620000     -34.07870000     -74.84170000
H      -45.99390000     -33.70420000     -75.09600000
H      -44.60630000     -34.72260000     -75.59170000
C      -47.71310000     -35.97960000     -71.09860000
H      -48.48890000     -36.22150000     -71.84770000
H      -47.63780000     -36.86230000     -70.46430000
S      -43.86470000     -32.50260000     -74.79590000
S      -48.30360000     -34.72450000     -69.87430000
C      -44.94620000     -31.26990000     -74.11640000
H      -44.37780000     -30.35000000     -74.06700000
H      -45.79500000     -31.00090000     -74.74410000
C      -48.38360000     -33.14970000     -70.91540000
H      -49.45180000     -32.84330000     -71.03920000
H      -47.91150000     -33.40040000     -71.80780000
C      -47.73930000     -32.01600000     -70.10330000
H      -47.79660000     -31.17760000     -70.85540000
H      -48.48640000     -31.78970000     -69.28770000
C      -45.53490000     -31.56860000     -72.72790000
H      -46.14800000     -32.55770000     -72.72700000
H      -46.28690000     -30.81830000     -72.47050000
C      -44.60100000     -31.78130000     -71.59010000
C      -43.24040000     -31.76070000     -71.71090000
C      -45.12760000     -32.07870000     -70.26580000
H      -42.59280000     -31.42360000     -72.53320000
C      -44.05700000     -32.28830000     -69.40970000
C      -46.35720000     -32.29280000     -69.57000000
C      -46.16180000     -32.76080000     -68.26780000
S      -42.51150000     -32.19240000     -70.21770000
S      -44.43360000     -32.92130000     -67.84190000
H      -46.94900000     -32.82920000     -67.54770000
