40
Properties=species:S:1:pos:R:3 #=T CELL(abcABC):=T 1.889726e+02=T 90.00000=T Traj:=T positionsangstrom=T Step:=T 0=T Bead:=T pbc="F F F"
C      -46.43290000     -32.46410000     -74.72840000
C      -45.70420000     -31.69290000     -73.78120000
C      -44.33630000     -31.80320000     -73.69970000
C      -43.72640000     -32.89600000     -74.35460000
C      -44.49100000     -33.78320000     -75.19440000
C      -45.89450000     -33.59740000     -75.34350000
H      -47.51980000     -32.19590000     -74.77670000
H      -43.74060000     -31.11760000     -73.07320000
H      -44.01030000     -34.58230000     -75.80280000
H      -46.51410000     -34.25760000     -75.98350000
C      -42.18370000     -33.05440000     -74.14620000
H      -41.76460000     -32.13460000     -73.90000000
H      -41.76150000     -33.47170000     -75.08500000
C      -46.22130000     -30.40270000     -73.22490000
H      -45.48010000     -29.90540000     -72.60310000
H      -46.42920000     -29.74470000     -74.08900000
S      -41.71990000     -34.32920000     -72.85580000
S      -47.95460000     -30.51940000     -72.45360000
C      -43.15960000     -34.62260000     -71.76020000
H      -44.03260000     -34.96330000     -72.38930000
H      -42.84730000     -35.42450000     -71.04210000
C      -47.86770000     -31.67220000     -70.93100000
H      -48.91190000     -31.74050000     -70.65460000
H      -47.28840000     -31.02760000     -70.22250000
C      -47.19920000     -32.98690000     -71.24040000
H      -47.89140000     -33.56690000     -71.92300000
H      -46.24810000     -32.95980000     -71.80630000
C      -43.58120000     -33.34730000     -70.87120000
H      -44.17850000     -32.59850000     -71.49600000
H      -42.59000000     -32.90260000     -70.62990000
C      -44.24350000     -33.83530000     -69.60540000
C      -43.45830000     -34.28380000     -68.58600000
C      -45.68560000     -34.00470000     -69.30590000
H      -42.33850000     -34.27760000     -68.50450000
C      -45.83400000     -34.77330000     -68.03340000
C      -46.91230000     -33.82430000     -70.04850000
C      -47.93510000     -34.40060000     -69.40500000
S      -44.34570000     -34.96220000     -67.19880000
S      -47.55290000     -35.29880000     -67.96960000
H      -48.90670000     -34.45380000     -69.87080000
