40
Properties=species:S:1:pos:R:3 #=T CELL(abcABC):=T 1.889726e+02=T 90.00000=T Traj:=T positionsangstrom=T Step:=T 0=T Bead:=T pbc="F F F"
C      -44.72660000     -36.05800000     -71.64990000
C      -45.92840000     -35.94230000     -72.31770000
C      -46.03260000     -34.94470000     -73.35460000
C      -44.94460000     -34.19700000     -73.76280000
C      -43.67590000     -34.38610000     -73.13130000
C      -43.58840000     -35.26530000     -72.00790000
H      -44.61090000     -36.86960000     -70.91170000
H      -46.93760000     -34.83690000     -73.93640000
H      -42.72180000     -33.91380000     -73.43670000
H      -42.64580000     -35.53720000     -71.49690000
C      -45.05690000     -33.20840000     -74.94700000
H      -46.01100000     -33.39440000     -75.35700000
H      -44.28490000     -33.59350000     -75.70810000
C      -47.13420000     -36.70470000     -71.90210000
H      -47.86280000     -36.84450000     -72.65090000
H      -46.92450000     -37.70380000     -71.47720000
S      -44.49950000     -31.44990000     -74.76520000
S      -48.10750000     -35.94710000     -70.36160000
C      -45.68250000     -30.74880000     -73.54280000
H      -45.25430000     -29.72110000     -73.32460000
H      -46.61100000     -30.52640000     -74.10960000
C      -48.10810000     -34.17420000     -70.88200000
H      -49.14090000     -33.93390000     -71.32040000
H      -47.37840000     -34.10030000     -71.74850000
C      -47.75980000     -33.08680000     -69.86870000
H      -48.04280000     -32.17140000     -70.39640000
H      -48.43400000     -33.21810000     -69.02910000
C      -46.03130000     -31.60150000     -72.27550000
H      -46.23240000     -32.58720000     -72.58350000
H      -46.93320000     -31.17430000     -71.80410000
C      -44.92780000     -31.60280000     -71.19440000
C      -43.68740000     -31.14400000     -71.24720000
C      -45.17600000     -32.20080000     -69.94900000
H      -43.17860000     -30.62300000     -72.12750000
C      -44.01800000     -32.32020000     -69.13960000
C      -46.32460000     -32.91210000     -69.34860000
C      -46.01740000     -33.51780000     -68.18260000
S      -42.62940000     -31.54560000     -69.87770000
S      -44.30590000     -33.28360000     -67.70760000
H      -46.75040000     -34.01090000     -67.55810000
