40
Properties=species:S:1:pos:R:3 #=T CELL(abcABC):=T 1.889726e+02=T 90.00000=T Traj:=T positionsangstrom=T Step:=T 0=T Bead:=T pbc="F F F"
C      -44.82510000     -36.15740000     -71.88250000
C      -46.06870000     -35.92910000     -72.48630000
C      -46.17410000     -34.94500000     -73.51270000
C      -45.12230000     -34.19260000     -73.92520000
C      -43.84940000     -34.41880000     -73.31140000
C      -43.70720000     -35.37530000     -72.35950000
H      -44.74650000     -37.02630000     -71.25440000
H      -47.11100000     -34.97110000     -74.08120000
H      -43.05160000     -33.84230000     -73.68300000
H      -42.75150000     -35.56300000     -71.80190000
C      -45.27980000     -33.10010000     -74.99310000
H      -46.25280000     -32.91820000     -75.35970000
H      -44.62820000     -33.47130000     -75.87450000
C      -47.26570000     -36.61520000     -72.08620000
H      -48.17160000     -36.66200000     -72.74060000
H      -47.00810000     -37.66910000     -71.97790000
S      -44.55380000     -31.53350000     -74.39740000
S      -47.71070000     -36.11430000     -70.27740000
C      -46.01660000     -30.88860000     -73.45160000
H      -45.89340000     -29.80290000     -73.40380000
H      -46.76340000     -31.07800000     -74.17690000
C      -48.16970000     -34.32560000     -70.55130000
H      -49.30250000     -34.21560000     -70.50680000
H      -47.92670000     -34.03680000     -71.55660000
C      -47.67960000     -33.41670000     -69.44380000
H      -48.22140000     -32.47560000     -69.51660000
H      -48.05420000     -33.84060000     -68.55230000
C      -46.25870000     -31.60170000     -72.13240000
H      -46.42910000     -32.63990000     -72.38270000
H      -47.19310000     -31.24640000     -71.71620000
C      -45.15240000     -31.50950000     -71.16440000
C      -43.92750000     -30.91120000     -71.39690000
C      -45.14260000     -32.25970000     -69.92890000
H      -43.68070000     -30.18080000     -72.13000000
C      -43.91100000     -32.14410000     -69.26910000
C      -46.12640000     -33.13430000     -69.24010000
C      -45.59860000     -33.63470000     -68.07480000
S      -42.72070000     -31.20790000     -70.06230000
S      -43.90510000     -33.13380000     -67.81340000
H      -46.16900000     -34.16600000     -67.37030000
