40
Properties=species:S:1:pos:R:3 #=T CELL(abcABC):=T 1.889726e+02=T 90.00000=T Traj:=T positionsangstrom=T Step:=T 0=T Bead:=T pbc="F F F"
C      -46.78500000     -31.36410000     -68.18570000
C      -46.71160000     -32.76060000     -68.25360000
C      -45.45550000     -33.40020000     -68.01400000
C      -44.34440000     -32.58280000     -68.08750000
C      -44.35350000     -31.18550000     -68.10360000
C      -45.60490000     -30.61060000     -68.14890000
H      -47.73370000     -30.91520000     -68.20390000
H      -45.28950000     -34.51460000     -67.98910000
H      -43.45930000     -30.58380000     -68.16970000
H      -45.69010000     -29.56290000     -68.13540000
C      -42.98120000     -33.18880000     -67.87580000
H      -42.76500000     -33.53150000     -66.82870000
H      -42.24940000     -32.35800000     -68.05520000
C      -47.99660000     -33.52330000     -68.47030000
H      -47.86970000     -34.56300000     -68.17670000
H      -48.70600000     -33.15510000     -67.74080000
S      -42.61660000     -34.64820000     -68.99460000
S      -48.91480000     -33.46250000     -70.04690000
C      -43.15440000     -34.03510000     -70.66340000
H      -43.64810000     -33.15070000     -70.49380000
H      -42.25310000     -33.86520000     -71.31470000
C      -47.69750000     -33.78220000     -71.31210000
H      -48.37100000     -34.08000000     -72.12780000
H      -47.12520000     -34.70880000     -71.00500000
C      -46.69560000     -32.70230000     -71.62470000
H      -47.07000000     -31.69570000     -71.54600000
H      -45.88060000     -32.77910000     -70.98100000
C      -44.05110000     -35.09260000     -71.36210000
H      -44.93490000     -35.15380000     -70.74860000
H      -43.54550000     -35.99840000     -71.39320000
C      -44.25330000     -34.67470000     -72.84310000
C      -43.31820000     -35.24970000     -73.76340000
C      -45.18400000     -33.81710000     -73.52010000
H      -42.52590000     -35.89120000     -73.48300000
C      -44.93040000     -33.71980000     -74.87170000
C      -46.21110000     -32.83640000     -73.07750000
C      -46.54310000     -32.02700000     -74.10010000
S      -43.50650000     -34.63510000     -75.33160000
S      -45.89030000     -32.49760000     -75.70170000
H      -47.12220000     -31.19280000     -74.08950000
