40
Properties=species:S:1:pos:R:3 #=T CELL(abcABC):=T 1.889726e+02=T 90.00000=T Traj:=T positionsangstrom=T Step:=T 0=T Bead:=T pbc="F F F"
C      -43.09490000     -31.73850000     -70.42470000
C      -44.30950000     -31.38020000     -69.87960000
C      -45.38460000     -31.10920000     -70.72580000
C      -45.32870000     -31.30800000     -72.13420000
C      -44.05210000     -31.75230000     -72.61950000
C      -42.96940000     -31.82820000     -71.83090000
H      -42.21120000     -31.89640000     -69.74470000
H      -46.34930000     -30.91490000     -70.24810000
H      -43.93580000     -31.87310000     -73.68570000
H      -41.96690000     -31.96180000     -72.23970000
C      -46.49500000     -31.08310000     -73.07730000
H      -46.40170000     -31.86370000     -73.84890000
H      -46.41550000     -30.08150000     -73.52140000
C      -44.48720000     -31.35260000     -68.33970000
H      -43.56460000     -30.94300000     -67.87090000
H      -45.36640000     -30.79460000     -68.01100000
S      -48.27190000     -31.19180000     -72.30320000
S      -44.55660000     -32.98420000     -67.67470000
C      -48.60840000     -32.91060000     -72.71860000
H      -49.67500000     -33.08860000     -72.66710000
H      -48.33810000     -32.94950000     -73.72570000
C      -46.05560000     -33.74760000     -68.47430000
H      -46.43210000     -33.02070000     -69.19860000
H      -46.89250000     -33.76480000     -67.76430000
C      -45.85030000     -35.18170000     -68.98810000
H      -45.35980000     -35.75230000     -68.23780000
H      -46.87570000     -35.63960000     -69.24620000
C      -47.94680000     -33.96260000     -71.85800000
H      -48.62940000     -34.80370000     -71.81480000
H      -47.85440000     -33.70740000     -70.80390000
C      -46.61090000     -34.50920000     -72.33290000
C      -46.48080000     -34.68520000     -73.69620000
C      -45.38210000     -34.85270000     -71.61790000
H      -47.32100000     -34.66150000     -74.39830000
C      -44.44410000     -35.27860000     -72.56590000
C      -44.96100000     -35.16060000     -70.22050000
C      -43.65030000     -35.51860000     -70.19970000
S      -44.90270000     -35.20080000     -74.21020000
S      -42.92890000     -35.70420000     -71.85740000
H      -43.07380000     -35.53570000     -69.31630000
