40
Properties=species:S:1:pos:R:3 #=T CELL(abcABC):=T 1.889726e+02=T 90.00000=T Traj:=T positionsangstrom=T Step:=T 0=T Bead:=T pbc="F F F"
C      -43.06710000     -31.72710000     -70.45700000
C      -44.29750000     -31.29030000     -69.89230000
C      -45.39230000     -31.08040000     -70.72580000
C      -45.22700000     -31.23810000     -72.09340000
C      -44.00630000     -31.60130000     -72.63110000
C      -42.88440000     -31.86140000     -71.81770000
H      -42.16860000     -31.72300000     -69.86830000
H      -46.36660000     -30.72340000     -70.38110000
H      -43.90020000     -31.73210000     -73.74270000
H      -41.91000000     -32.01130000     -72.26460000
C      -46.39410000     -31.23900000     -73.09660000
H      -46.23390000     -32.07100000     -73.80200000
H      -46.39770000     -30.28420000     -73.64730000
C      -44.46020000     -31.29180000     -68.39410000
H      -43.60020000     -30.88000000     -67.88030000
H      -45.33260000     -30.59710000     -68.18200000
S      -48.19230000     -31.28320000     -72.37410000
S      -44.80490000     -33.02100000     -67.78460000
C      -48.75280000     -32.99200000     -72.66900000
H      -49.80490000     -32.94270000     -72.37420000
H      -48.81030000     -33.22720000     -73.73000000
C      -46.26730000     -33.47550000     -68.84290000
H      -46.19900000     -32.96840000     -69.80770000
H      -47.21070000     -33.17730000     -68.31200000
C      -46.14280000     -34.94220000     -69.11990000
H      -45.97940000     -35.56710000     -68.15760000
H      -47.15660000     -35.27720000     -69.44750000
C      -47.88310000     -34.00890000     -71.89260000
H      -48.46220000     -34.90330000     -71.66640000
H      -47.63610000     -33.58590000     -70.93460000
C      -46.53810000     -34.43680000     -72.49700000
C      -46.24870000     -34.49380000     -73.84830000
C      -45.46290000     -35.05500000     -71.67240000
H      -46.88060000     -34.26580000     -74.67420000
C      -44.32410000     -35.31150000     -72.46140000
C      -45.21470000     -35.23210000     -70.22820000
C      -43.92040000     -35.58700000     -69.97240000
S      -44.52510000     -35.05700000     -74.17310000
S      -42.96420000     -35.94990000     -71.43990000
H      -43.70680000     -35.89870000     -68.93710000
