40
Properties=species:S:1:pos:R:3 #=T CELL(abcABC):=T 1.889726e+02=T 90.00000=T Traj:=T positionsangstrom=T Step:=T 0=T Bead:=T pbc="F F F"
C      -46.60370000     -32.76440000     -75.28370000
C      -46.26490000     -31.95260000     -74.25640000
C      -44.87350000     -31.88040000     -73.92630000
C      -43.89860000     -32.53140000     -74.67050000
C      -44.30070000     -33.34870000     -75.80170000
C      -45.63890000     -33.45080000     -76.04300000
H      -47.66280000     -32.88550000     -75.49280000
H      -44.55760000     -31.17330000     -73.12790000
H      -43.55800000     -33.88030000     -76.30110000
H      -45.93710000     -34.14930000     -76.83850000
C      -42.44830000     -32.48370000     -74.18830000
H      -42.47760000     -31.57890000     -73.56780000
H      -41.75790000     -32.39950000     -75.02940000
C      -47.29040000     -31.27150000     -73.37830000
H      -46.74140000     -30.76390000     -72.52600000
H      -47.71430000     -30.43030000     -73.88460000
S      -42.07830000     -34.07830000     -73.28670000
S      -48.80980000     -32.13620000     -72.66030000
C      -42.46750000     -33.71750000     -71.51420000
H      -41.83170000     -34.34540000     -70.85220000
H      -42.23390000     -32.66780000     -71.25370000
C      -48.14080000     -32.89110000     -71.07410000
H      -49.05170000     -32.97320000     -70.44870000
H      -47.57380000     -32.04770000     -70.53840000
C      -47.26270000     -34.15310000     -70.96190000
H      -47.89150000     -35.09820000     -71.14880000
H      -46.46730000     -34.17940000     -71.69540000
C      -43.96490000     -33.90650000     -71.19850000
H      -44.29160000     -34.87380000     -71.59940000
H      -44.52220000     -33.14470000     -71.77640000
C      -44.16450000     -33.69700000     -69.78560000
C      -43.21190000     -33.59320000     -68.83210000
C      -45.39000000     -34.09420000     -69.04000000
H      -42.14040000     -33.46440000     -69.03900000
C      -45.23180000     -34.21830000     -67.67970000
C      -46.73810000     -34.31330000     -69.50830000
C      -47.60560000     -34.48360000     -68.48070000
S      -43.57720000     -33.82750000     -67.16690000
S      -46.79120000     -34.46490000     -66.86070000
H      -48.60820000     -34.87720000     -68.49110000
