40
Properties=species:S:1:pos:R:3 #=T CELL(abcABC):=T 1.889726e+02=T 90.00000=T Traj:=T positionsangstrom=T Step:=T 0=T Bead:=T pbc="F F F"
C      -44.36590000     -35.38970000     -71.82720000
C      -45.72040000     -35.57720000     -72.26850000
C      -46.14780000     -34.73120000     -73.20290000
C      -45.39890000     -33.65990000     -73.73320000
C      -44.05760000     -33.52880000     -73.33650000
C      -43.52880000     -34.41650000     -72.38440000
H      -43.95150000     -36.04910000     -71.05480000
H      -47.22600000     -34.89870000     -73.56640000
H      -43.48040000     -32.74120000     -73.86880000
H      -42.42020000     -34.36170000     -72.20400000
C      -46.12660000     -32.67820000     -74.65370000
H      -47.22140000     -32.85430000     -74.63900000
H      -45.79580000     -32.82730000     -75.70270000
C      -46.53820000     -36.63930000     -71.74020000
H      -47.40440000     -36.91210000     -72.34410000
H      -45.98020000     -37.54780000     -71.86410000
S      -45.78340000     -30.86770000     -74.47410000
S      -47.15250000     -36.45440000     -70.01110000
C      -46.54660000     -30.25980000     -72.93920000
H      -46.06780000     -29.35540000     -72.64640000
H      -47.62670000     -30.16590000     -73.13720000
C      -48.02840000     -34.77910000     -70.14320000
H      -49.10250000     -34.92560000     -69.78720000
H      -48.18240000     -34.60710000     -71.26280000
C      -47.43620000     -33.56770000     -69.44140000
H      -47.87820000     -32.61390000     -69.90240000
H      -47.89080000     -33.46720000     -68.42320000
C      -46.56150000     -31.31950000     -71.74050000
H      -46.87790000     -32.33830000     -72.01900000
H      -47.28420000     -31.03220000     -70.97470000
C      -45.26060000     -31.59850000     -71.04780000
C      -44.06760000     -30.95400000     -71.28920000
C      -45.06110000     -32.65630000     -70.02570000
H      -43.86260000     -30.26380000     -72.11260000
C      -43.75270000     -32.73760000     -69.64780000
C      -45.88960000     -33.55000000     -69.33960000
C      -45.16580000     -34.44350000     -68.54310000
S      -42.67500000     -31.63420000     -70.48560000
S      -43.49970000     -33.92600000     -68.44550000
H      -45.49800000     -35.14310000     -67.74510000
