40
Properties=species:S:1:pos:R:3 #=T CELL(abcABC):=T 1.889726e+02=T 90.00000=T Traj:=T positionsangstrom=T Step:=T 0=T Bead:=T pbc="F F F"
C      -43.23290000     -32.27130000     -70.89720000
C      -44.33410000     -31.78080000     -70.14130000
C      -45.44000000     -31.23800000     -70.83090000
C      -45.41060000     -31.18750000     -72.21680000
C      -44.33010000     -31.66370000     -72.92610000
C      -43.16140000     -32.08120000     -72.25670000
H      -42.44220000     -32.71380000     -70.32220000
H      -46.18620000     -30.80790000     -70.20600000
H      -44.45320000     -31.59320000     -74.01800000
H      -42.42290000     -32.52340000     -72.89550000
C      -46.49140000     -30.38790000     -72.91450000
H      -46.21570000     -30.30880000     -74.03620000
H      -46.46780000     -29.39520000     -72.45170000
C      -44.30530000     -31.78660000     -68.65450000
H      -43.28300000     -31.68800000     -68.27430000
H      -44.93720000     -31.01370000     -68.16120000
S      -48.27030000     -30.82820000     -72.67960000
S      -44.94720000     -33.38870000     -67.81170000
C      -48.28090000     -32.60560000     -73.12730000
H      -49.36040000     -32.94700000     -73.13570000
H      -47.73420000     -32.90750000     -74.07030000
C      -46.63360000     -33.70500000     -68.55530000
H      -46.89610000     -32.94210000     -69.27010000
H      -47.45330000     -33.71980000     -67.80170000
C      -46.54740000     -35.10280000     -69.21980000
H      -46.49750000     -35.93380000     -68.47980000
H      -47.45620000     -35.21790000     -69.80340000
C      -47.60260000     -33.51300000     -72.03360000
H      -48.15770000     -34.27670000     -71.41650000
H      -47.33060000     -32.82740000     -71.19380000
C      -46.26150000     -34.18960000     -72.44640000
C      -45.78890000     -34.29600000     -73.73990000
C      -45.37030000     -34.92450000     -71.49910000
H      -46.18660000     -33.91730000     -74.67480000
C      -44.19970000     -35.36200000     -72.11210000
C      -45.39190000     -35.32300000     -70.13170000
C      -44.21550000     -35.86680000     -69.69260000
S      -44.11450000     -34.96950000     -73.86740000
S      -42.96650000     -35.99540000     -70.97240000
H      -44.12640000     -36.19990000     -68.69970000
