40
Properties=species:S:1:pos:R:3 #=T CELL(abcABC):=T 1.889726e+02=T 90.00000=T Traj:=T positionsangstrom=T Step:=T 0=T Bead:=T pbc="F F F"
C      -43.36290000     -32.30220000     -70.82610000
C      -44.39420000     -31.79010000     -70.05930000
C      -45.38720000     -31.04390000     -70.73160000
C      -45.33030000     -30.91440000     -72.13370000
C      -44.22960000     -31.33700000     -72.84630000
C      -43.18460000     -32.04310000     -72.20800000
H      -42.56340000     -32.80330000     -70.22730000
H      -46.26660000     -30.65960000     -70.15800000
H      -44.17130000     -31.17240000     -73.88940000
H      -42.29100000     -32.37930000     -72.71420000
C      -46.37290000     -30.24720000     -72.93500000
H      -46.16680000     -30.36920000     -73.95960000
H      -46.40580000     -29.16110000     -72.74540000
C      -44.33420000     -31.84920000     -68.54960000
H      -43.27560000     -31.83820000     -68.25520000
H      -44.67680000     -30.91380000     -68.04350000
S      -48.09210000     -30.87900000     -72.71490000
S      -45.14440000     -33.29450000     -67.62700000
C      -48.14030000     -32.66600000     -73.25460000
H      -49.14810000     -32.70000000     -73.60330000
H      -47.62090000     -32.70400000     -74.19900000
C      -46.56610000     -33.73000000     -68.66100000
H      -46.46670000     -33.07860000     -69.54010000
H      -47.49550000     -33.48780000     -68.16590000
C      -46.54030000     -35.19510000     -69.16140000
H      -46.56730000     -35.81810000     -68.25270000
H      -47.54160000     -35.33390000     -69.59860000
C      -47.65310000     -33.60530000     -72.14420000
H      -48.42480000     -34.33580000     -72.07060000
H      -47.59760000     -33.04620000     -71.25850000
C      -46.25190000     -34.22490000     -72.49590000
C      -45.71120000     -34.22370000     -73.73520000
C      -45.37070000     -34.94150000     -71.53520000
H      -46.13460000     -33.78570000     -74.60270000
C      -44.19470000     -35.39510000     -72.15220000
C      -45.40680000     -35.40910000     -70.14920000
C      -44.26310000     -36.04770000     -69.81390000
S      -44.15030000     -35.01510000     -73.85800000
S      -43.05020000     -36.14550000     -71.09480000
H      -44.01430000     -36.30820000     -68.82460000
