40
Properties=species:S:1:pos:R:3 #=T CELL(abcABC):=T 1.889726e+02=T 90.00000=T Traj:=T positionsangstrom=T Step:=T 0=T Bead:=T pbc="F F F"
C      -43.12070000     -31.92790000     -70.03240000
C      -44.36770000     -31.61100000     -69.51930000
C      -45.39600000     -31.13800000     -70.34640000
C      -45.08490000     -31.00300000     -71.71480000
C      -43.87000000     -31.31710000     -72.24650000
C      -42.82180000     -31.75900000     -71.39870000
H      -42.37290000     -32.38170000     -69.35460000
H      -46.35650000     -30.76050000     -69.93000000
H      -43.61640000     -31.18600000     -73.32340000
H      -41.81100000     -32.00810000     -71.79150000
C      -46.17460000     -30.47500000     -72.67360000
H      -45.88970000     -30.55630000     -73.67900000
H      -46.12410000     -29.37750000     -72.43760000
C      -44.69240000     -31.80320000     -68.07760000
H      -43.86040000     -31.60590000     -67.48440000
H      -45.52510000     -31.18490000     -67.84760000
S      -47.85860000     -31.12120000     -72.32060000
S      -45.35930000     -33.55360000     -67.79770000
C      -48.04540000     -32.52790000     -73.57100000
H      -49.13190000     -32.46280000     -73.91320000
H      -47.29140000     -32.30860000     -74.33550000
C      -46.65040000     -33.70680000     -69.14770000
H      -46.35190000     -33.07400000     -70.05860000
H      -47.58130000     -33.39070000     -68.65500000
C      -46.85470000     -35.15980000     -69.63230000
H      -46.93520000     -35.86020000     -68.76630000
H      -47.80030000     -35.19710000     -70.12210000
C      -47.80720000     -33.92980000     -72.93350000
H      -48.29530000     -34.79610000     -73.39910000
H      -48.11310000     -33.95820000     -71.89650000
C      -46.29610000     -34.33510000     -72.91810000
C      -45.56430000     -34.08480000     -74.07080000
C      -45.57270000     -35.03540000     -71.88140000
H      -45.80890000     -33.55470000     -75.04260000
C      -44.24400000     -35.24030000     -72.34910000
C      -45.69280000     -35.47760000     -70.52050000
C      -44.53480000     -36.14430000     -70.07840000
S      -43.93160000     -34.71250000     -74.00100000
S      -43.24110000     -36.04910000     -71.24940000
H      -44.28980000     -36.42350000     -69.05320000
