40
Properties=species:S:1:pos:R:3 #=T CELL(abcABC):=T 1.889726e+02=T 90.00000=T Traj:=T positionsangstrom=T Step:=T 0=T Bead:=T pbc="F F F"
C      -43.19210000     -31.96120000     -70.16950000
C      -44.36940000     -31.40500000     -69.61440000
C      -45.32580000     -30.85320000     -70.44700000
C      -45.13900000     -30.96220000     -71.80750000
C      -43.99310000     -31.55550000     -72.41890000
C      -42.95880000     -32.04690000     -71.59050000
H      -42.47560000     -32.34280000     -69.48990000
H      -46.29360000     -30.61280000     -70.01520000
H      -43.91530000     -31.62740000     -73.51090000
H      -42.08890000     -32.52890000     -71.99060000
C      -46.27760000     -30.43440000     -72.72310000
H      -46.11210000     -30.66320000     -73.83050000
H      -46.33280000     -29.34300000     -72.63950000
C      -44.67540000     -31.70370000     -68.20020000
H      -43.81240000     -31.56290000     -67.54780000
H      -45.41170000     -30.90500000     -67.80870000
S      -48.00030000     -31.15040000     -72.37480000
S      -45.24890000     -33.47390000     -67.95590000
C      -48.16040000     -32.66620000     -73.36920000
H      -49.21830000     -32.74180000     -73.54690000
H      -47.78800000     -32.54280000     -74.35220000
C      -46.76720000     -33.61960000     -68.91890000
H      -46.80290000     -32.92670000     -69.70220000
H      -47.74490000     -33.44720000     -68.39410000
C      -46.82990000     -35.03800000     -69.61110000
H      -46.86710000     -35.86910000     -68.87870000
H      -47.84180000     -35.12480000     -70.16420000
C      -47.69820000     -33.93820000     -72.67840000
H      -48.42180000     -34.77640000     -72.90140000
H      -47.85350000     -33.67930000     -71.64390000
C      -46.24370000     -34.32080000     -72.87270000
C      -45.55690000     -34.18940000     -74.07340000
C      -45.42900000     -34.95640000     -71.83500000
H      -45.73170000     -33.82670000     -75.09190000
C      -44.12590000     -35.26090000     -72.30640000
C      -45.62230000     -35.39370000     -70.45230000
C      -44.51040000     -36.04780000     -69.95190000
S      -43.80480000     -34.70150000     -73.93970000
S      -43.23800000     -36.20490000     -71.14570000
H      -44.56940000     -36.41960000     -68.93300000
