40
Properties=species:S:1:pos:R:3 #=T CELL(abcABC):=T 1.889726e+02=T 90.00000=T Traj:=T positionsangstrom=T Step:=T 0=T Bead:=T pbc="F F F"
C      -43.32970000     -32.21600000     -69.80960000
C      -44.61070000     -31.84300000     -69.39050000
C      -45.55830000     -31.44180000     -70.35790000
C      -45.17390000     -31.16390000     -71.69160000
C      -43.87420000     -31.55530000     -72.08520000
C      -42.98160000     -32.07440000     -71.14780000
H      -42.53740000     -32.52190000     -69.14660000
H      -46.51890000     -30.97700000     -70.04350000
H      -43.53090000     -31.38780000     -73.09940000
H      -42.00990000     -32.32250000     -71.52170000
C      -45.91890000     -30.35000000     -72.69730000
H      -45.46740000     -30.49370000     -73.65820000
H      -45.77980000     -29.27370000     -72.36580000
C      -45.00670000     -32.03350000     -67.97550000
H      -44.22570000     -31.75620000     -67.21580000
H      -45.95000000     -31.36810000     -67.75070000
S      -47.71860000     -30.65080000     -72.69530000
S      -45.56960000     -33.82920000     -67.71560000
C      -48.07370000     -32.31560000     -73.40240000
H      -49.18100000     -32.23290000     -73.58820000
H      -47.56100000     -32.36830000     -74.34880000
C      -46.87110000     -34.07780000     -68.97670000
H      -46.77020000     -33.22050000     -69.61080000
H      -47.83080000     -34.14920000     -68.40640000
C      -46.70750000     -35.40340000     -69.72830000
H      -46.69510000     -36.26900000     -69.10610000
H      -47.66610000     -35.47540000     -70.24480000
C      -47.62020000     -33.51160000     -72.55660000
H      -48.32220000     -34.38800000     -72.73710000
H      -47.75320000     -33.28010000     -71.54690000
C      -46.13260000     -33.99260000     -72.79750000
C      -45.47350000     -33.71200000     -73.93910000
C      -45.33900000     -34.77970000     -71.87550000
H      -45.86930000     -33.26060000     -74.80780000
C      -44.16640000     -35.11900000     -72.44970000
C      -45.54170000     -35.46880000     -70.63660000
C      -44.46110000     -36.31690000     -70.32000000
S      -43.90490000     -34.48750000     -74.02760000
S      -43.15680000     -36.15900000     -71.48430000
H      -44.18400000     -36.87300000     -69.45300000
