40
Properties=species:S:1:pos:R:3 #=T CELL(abcABC):=T 1.889726e+02=T 90.00000=T Traj:=T positionsangstrom=T Step:=T 0=T Bead:=T pbc="F F F"
C      -43.35110000     -32.40090000     -69.32180000
C      -44.75090000     -32.23080000     -69.06300000
C      -45.53440000     -31.46510000     -69.94020000
C      -45.07680000     -31.10890000     -71.24630000
C      -43.73380000     -31.38160000     -71.51950000
C      -42.84020000     -31.96350000     -70.55910000
H      -42.74650000     -32.80320000     -68.52880000
H      -46.59720000     -31.34150000     -69.74040000
H      -43.30120000     -30.92480000     -72.47420000
H      -41.85870000     -32.16310000     -70.82340000
C      -45.87110000     -30.27640000     -72.24220000
H      -45.46890000     -30.19410000     -73.25360000
H      -45.83820000     -29.28890000     -71.81130000
C      -45.41150000     -32.74130000     -67.78580000
H      -44.81450000     -32.65580000     -66.84640000
H      -46.22200000     -32.07240000     -67.70720000
S      -47.64200000     -30.68400000     -72.36930000
S      -46.00900000     -34.48770000     -68.04190000
C      -47.74980000     -31.96040000     -73.72790000
H      -48.83960000     -31.99170000     -73.93930000
H      -47.11830000     -31.63270000     -74.60220000
C      -47.31280000     -34.31160000     -69.29490000
H      -47.16370000     -33.38260000     -69.86430000
H      -48.30520000     -34.31810000     -68.85500000
C      -47.16240000     -35.47260000     -70.40850000
H      -47.44450000     -36.38620000     -69.92060000
H      -47.94070000     -35.18820000     -71.07500000
C      -47.34680000     -33.40920000     -73.36730000
H      -47.71090000     -33.99740000     -74.20400000
H      -47.90980000     -33.72480000     -72.45820000
C      -45.88610000     -33.64730000     -73.18810000
C      -44.93170000     -33.16910000     -74.00600000
C      -45.32650000     -34.64670000     -72.23480000
H      -45.07550000     -32.49750000     -74.82670000
C      -43.95510000     -34.90330000     -72.49190000
C      -45.84050000     -35.49200000     -71.15310000
C      -44.83500000     -36.31080000     -70.69580000
S      -43.33940000     -33.95700000     -73.76860000
S      -43.28780000     -36.18470000     -71.52450000
H      -44.87360000     -36.87200000     -69.80480000
