40
Properties=species:S:1:pos:R:3 #=T CELL(abcABC):=T 1.889726e+02=T 90.00000=T Traj:=T positionsangstrom=T Step:=T 0=T Bead:=T pbc="F F F"
C      -43.19820000     -32.08010000     -69.93280000
C      -44.50840000     -31.78340000     -69.49610000
C      -45.40570000     -31.21560000     -70.46100000
C      -45.08210000     -31.00610000     -71.78810000
C      -43.69210000     -31.25210000     -72.12350000
C      -42.80890000     -31.77930000     -71.20340000
H      -42.56910000     -32.56770000     -69.19740000
H      -46.45140000     -31.22700000     -70.22030000
H      -43.44810000     -31.06730000     -73.13200000
H      -41.86840000     -32.17660000     -71.52870000
C      -46.10950000     -30.48230000     -72.79030000
H      -45.87690000     -30.89060000     -73.79630000
H      -45.98560000     -29.42660000     -73.01200000
C      -44.98570000     -32.06170000     -68.07510000
H      -44.12830000     -31.94870000     -67.42130000
H      -45.69160000     -31.34140000     -67.78330000
S      -47.82600000     -30.85180000     -72.40160000
S      -45.58310000     -33.74660000     -67.73780000
C      -48.18520000     -32.39280000     -73.28400000
H      -49.23790000     -32.53500000     -73.31030000
H      -47.92010000     -32.34460000     -74.36510000
C      -46.93550000     -34.01120000     -68.95550000
H      -47.00840000     -33.22410000     -69.67640000
H      -47.99650000     -34.15340000     -68.54960000
C      -46.74290000     -35.26420000     -69.80940000
H      -46.84650000     -36.14030000     -69.18980000
H      -47.68380000     -35.30590000     -70.49160000
C      -47.58580000     -33.54130000     -72.55270000
H      -48.27790000     -34.39780000     -72.69660000
H      -47.59420000     -33.31610000     -71.44400000
C      -46.14990000     -34.05780000     -72.87770000
C      -45.47570000     -33.85350000     -74.04720000
C      -45.35200000     -34.85160000     -71.95200000
H      -45.95890000     -33.39480000     -74.88320000
C      -44.15490000     -35.29430000     -72.50190000
C      -45.53710000     -35.35920000     -70.59810000
C      -44.45450000     -36.09520000     -70.14100000
S      -43.89540000     -34.63300000     -74.10920000
S      -43.18980000     -36.25090000     -71.35400000
H      -44.39100000     -36.67910000     -69.17700000
