40
Properties=species:S:1:pos:R:3 #=T CELL(abcABC):=T 1.889726e+02=T 90.00000=T Traj:=T positionsangstrom=T Step:=T 0=T Bead:=T pbc="F F F"
C      -43.50440000     -32.64340000     -69.33230000
C      -44.82810000     -32.28290000     -69.00880000
C      -45.62400000     -31.54440000     -69.92430000
C      -45.07910000     -31.02940000     -71.07780000
C      -43.75170000     -31.30040000     -71.38310000
C      -43.01170000     -32.11730000     -70.53610000
H      -42.98230000     -33.34640000     -68.66420000
H      -46.59930000     -31.15690000     -69.59210000
H      -43.43710000     -30.89240000     -72.35040000
H      -42.00550000     -32.39640000     -70.85280000
C      -45.83770000     -30.19440000     -72.04690000
H      -45.34050000     -30.23930000     -73.04660000
H      -45.85310000     -29.07080000     -71.94280000
C      -45.50740000     -32.83130000     -67.82010000
H      -44.89700000     -33.09100000     -66.88600000
H      -46.26140000     -32.17410000     -67.42950000
S      -47.59140000     -30.78180000     -72.25080000
S      -46.16170000     -34.52450000     -68.16910000
C      -47.67960000     -31.84070000     -73.75080000
H      -48.63070000     -31.77000000     -74.16000000
H      -46.97780000     -31.43090000     -74.46370000
C      -47.18210000     -34.29670000     -69.64510000
H      -47.00040000     -33.35770000     -70.07490000
H      -48.26290000     -34.19740000     -69.26720000
C      -47.17220000     -35.49160000     -70.66240000
H      -47.42590000     -36.44050000     -70.26250000
H      -47.93230000     -35.22080000     -71.49910000
C      -47.32180000     -33.26640000     -73.33520000
H      -47.76100000     -33.99860000     -74.13230000
H      -47.83650000     -33.52770000     -72.43790000
C      -45.85750000     -33.70360000     -73.16930000
C      -44.88740000     -33.16650000     -73.93070000
C      -45.34260000     -34.76450000     -72.40850000
H      -45.08260000     -32.25940000     -74.55490000
C      -43.93090000     -34.95790000     -72.55390000
C      -45.80460000     -35.53800000     -71.30700000
C      -44.83120000     -36.33390000     -70.73760000
S      -43.27640000     -33.74390000     -73.65620000
S      -43.15860000     -36.10350000     -71.45950000
H      -44.98170000     -37.04060000     -69.90680000
