40
Properties=species:S:1:pos:R:3 #=T CELL(abcABC):=T 1.889726e+02=T 90.00000=T Traj:=T positionsangstrom=T Step:=T 0=T Bead:=T pbc="F F F"
C      -44.04070000     -33.06290000     -69.17220000
C      -45.40950000     -32.71200000     -68.93240000
C      -45.97290000     -31.61840000     -69.60280000
C      -45.27310000     -31.14900000     -70.73300000
C      -43.95270000     -31.45030000     -70.97120000
C      -43.32730000     -32.46110000     -70.15440000
H      -43.59140000     -33.82710000     -68.55160000
H      -46.93480000     -31.12710000     -69.37950000
H      -43.38760000     -31.11720000     -71.82520000
H      -42.24690000     -32.74200000     -70.27410000
C      -45.98920000     -30.15610000     -71.74960000
H      -45.33830000     -30.10080000     -72.66930000
H      -46.06220000     -29.08370000     -71.51970000
C      -46.17450000     -33.42860000     -67.80370000
H      -45.59730000     -33.50280000     -66.83490000
H      -47.16430000     -32.94800000     -67.69100000
S      -47.70400000     -30.47990000     -72.28300000
S      -46.36870000     -35.17180000     -68.35970000
C      -47.55960000     -31.76350000     -73.56210000
H      -48.59130000     -31.71790000     -74.06040000
H      -46.87740000     -31.30280000     -74.30660000
C      -47.38090000     -34.84640000     -69.89390000
H      -47.40160000     -33.75990000     -70.04480000
H      -48.39630000     -35.12320000     -69.60210000
C      -46.82950000     -35.70980000     -71.08750000
H      -47.00260000     -36.74880000     -70.67520000
H      -47.48160000     -35.56500000     -71.96720000
C      -47.10250000     -33.20090000     -73.18630000
H      -47.52330000     -33.89730000     -73.95780000
H      -47.50870000     -33.40950000     -72.17770000
C      -45.60640000     -33.45940000     -73.25850000
C      -44.66570000     -32.72890000     -73.89820000
C      -45.03100000     -34.63450000     -72.58960000
H      -44.87590000     -31.80000000     -74.44250000
C      -43.61720000     -34.57710000     -72.68180000
C      -45.41100000     -35.44610000     -71.47810000
C      -44.34370000     -36.07180000     -70.84660000
S      -43.06180000     -33.34210000     -73.74590000
S      -42.82260000     -35.63060000     -71.57880000
H      -44.27770000     -36.69410000     -70.06500000
