40
Properties=species:S:1:pos:R:3 #=T CELL(abcABC):=T 1.889726e+02=T 90.00000=T Traj:=T positionsangstrom=T Step:=T 0=T Bead:=T pbc="F F F"
C      -44.13940000     -33.04140000     -69.03260000
C      -45.50840000     -32.79300000     -68.98970000
C      -46.18100000     -31.88590000     -69.79690000
C      -45.33800000     -31.15090000     -70.76240000
C      -43.95630000     -31.37070000     -70.75280000
C      -43.36040000     -32.28720000     -69.84050000
H      -43.65940000     -33.80210000     -68.35330000
H      -47.22800000     -31.57470000     -69.62780000
H      -43.33620000     -30.78400000     -71.39590000
H      -42.27180000     -32.28990000     -69.81290000
C      -46.03970000     -30.14980000     -71.58550000
H      -45.39370000     -29.72220000     -72.27130000
H      -46.29910000     -29.29500000     -70.97860000
C      -46.29360000     -33.64410000     -67.96940000
H      -45.77500000     -33.69430000     -67.03640000
H      -47.30250000     -33.22650000     -67.83590000
S      -47.67650000     -30.60550000     -72.23920000
S      -46.40880000     -35.45960000     -68.42680000
C      -47.44270000     -31.64280000     -73.74580000
H      -48.49960000     -31.83380000     -74.04370000
H      -46.91890000     -31.09760000     -74.57650000
C      -47.46940000     -35.20950000     -70.00080000
H      -47.61050000     -34.12520000     -70.10460000
H      -48.42080000     -35.66950000     -69.83480000
C      -46.89400000     -35.76120000     -71.31850000
H      -47.05740000     -36.82300000     -71.40590000
H      -47.57080000     -35.36610000     -72.04740000
C      -46.91990000     -33.10370000     -73.50980000
H      -47.25480000     -33.70230000     -74.34190000
H      -47.54580000     -33.42230000     -72.63860000
C      -45.49160000     -33.26580000     -73.27900000
C      -44.51300000     -32.51520000     -73.89270000
C      -44.95520000     -34.40410000     -72.50330000
H      -44.71960000     -31.67040000     -74.53910000
C      -43.57140000     -34.40020000     -72.58720000
C      -45.46750000     -35.40770000     -71.61800000
C      -44.44040000     -36.11420000     -71.03000000
S      -42.89460000     -33.07530000     -73.58500000
S      -42.83010000     -35.59090000     -71.45630000
H      -44.56610000     -36.88980000     -70.16890000
