40
Properties=species:S:1:pos:R:3 #=T CELL(abcABC):=T 1.889726e+02=T 90.00000=T Traj:=T positionsangstrom=T Step:=T 0=T Bead:=T pbc="F F F"
C      -43.74930000     -32.79850000     -69.25160000
C      -45.11810000     -32.49680000     -69.01090000
C      -45.78110000     -31.62680000     -69.83900000
C      -45.10900000     -31.02330000     -70.94140000
C      -43.80500000     -31.28020000     -71.14500000
C      -43.11780000     -32.15570000     -70.30120000
H      -43.26270000     -33.50450000     -68.60740000
H      -46.82790000     -31.56690000     -69.66300000
H      -43.28500000     -30.71340000     -71.89380000
H      -42.07340000     -32.42580000     -70.47360000
C      -45.85560000     -30.13090000     -71.90910000
H      -45.27460000     -29.97510000     -72.85200000
H      -46.00350000     -29.07640000     -71.50010000
C      -45.82360000     -33.08570000     -67.88530000
H      -45.16780000     -33.10400000     -67.04970000
H      -46.73670000     -32.45480000     -67.65150000
S      -47.67960000     -30.60670000     -72.12000000
S      -46.59610000     -34.82270000     -68.24090000
C      -47.48820000     -31.81760000     -73.55450000
H      -48.48660000     -31.87210000     -73.99590000
H      -46.81190000     -31.41110000     -74.25030000
C      -47.54560000     -34.66620000     -69.88000000
H      -47.67060000     -33.55280000     -70.19530000
H      -48.55170000     -34.92610000     -69.73040000
C      -47.07710000     -35.58070000     -70.97750000
H      -47.18070000     -36.60660000     -70.55970000
H      -47.68950000     -35.59960000     -71.84910000
C      -47.11780000     -33.28250000     -73.24320000
H      -47.46060000     -33.89060000     -74.10430000
H      -47.64700000     -33.60400000     -72.36670000
C      -45.61790000     -33.54970000     -73.14260000
C      -44.67910000     -32.97090000     -73.96090000
C      -45.07690000     -34.72720000     -72.50420000
H      -44.76590000     -32.09590000     -74.59830000
C      -43.72140000     -34.91480000     -72.78140000
C      -45.58090000     -35.55540000     -71.40060000
C      -44.53230000     -36.16220000     -70.72760000
S      -43.07850000     -33.63760000     -73.78840000
S      -42.95800000     -35.84380000     -71.46510000
H      -44.67630000     -36.73900000     -69.75340000
