40
Properties=species:S:1:pos:R:3 #=T CELL(abcABC):=T 1.889726e+02=T 90.00000=T Traj:=T positionsangstrom=T Step:=T 0=T Bead:=T pbc="F F F"
C      -44.11340000     -32.95120000     -68.88710000
C      -45.52270000     -32.80750000     -68.84740000
C      -46.15540000     -31.95580000     -69.75470000
C      -45.45380000     -31.14000000     -70.60610000
C      -44.09010000     -31.13920000     -70.60030000
C      -43.45850000     -32.08060000     -69.75160000
H      -43.57990000     -33.55570000     -68.19060000
H      -47.25280000     -31.87670000     -69.69620000
H      -43.57330000     -30.52390000     -71.25700000
H      -42.37160000     -32.00920000     -69.77700000
C      -46.19060000     -30.15790000     -71.46370000
H      -45.66680000     -29.87380000     -72.34420000
H      -46.44470000     -29.23320000     -70.88470000
C      -46.25910000     -33.71580000     -67.97520000
H      -45.68840000     -33.96770000     -67.04620000
H      -47.22650000     -33.17900000     -67.75750000
S      -47.90250000     -30.82350000     -72.09830000
S      -46.68650000     -35.42720000     -68.69500000
C      -47.46160000     -31.80930000     -73.53690000
H      -48.31360000     -31.80140000     -74.15540000
H      -46.80730000     -31.24250000     -74.20960000
C      -47.50290000     -35.23220000     -70.32910000
H      -47.62820000     -34.11890000     -70.53560000
H      -48.55360000     -35.52700000     -70.21400000
C      -46.72100000     -35.88780000     -71.50970000
H      -46.70820000     -36.99710000     -71.26430000
H      -47.27930000     -35.90340000     -72.44900000
C      -46.95360000     -33.24270000     -73.40690000
H      -47.30960000     -33.82950000     -74.28350000
H      -47.30440000     -33.74230000     -72.49600000
C      -45.40010000     -33.37560000     -73.35200000
C      -44.44360000     -32.52240000     -74.00130000
C      -44.80090000     -34.32070000     -72.50780000
H      -44.56080000     -31.76370000     -74.66860000
C      -43.41520000     -34.33000000     -72.57610000
C      -45.27810000     -35.36980000     -71.65270000
C      -44.25140000     -35.96810000     -70.99360000
S      -42.80350000     -33.06700000     -73.58100000
S      -42.63570000     -35.43580000     -71.48770000
H      -44.29600000     -36.81400000     -70.37650000
