40
Properties=species:S:1:pos:R:3 #=T CELL(abcABC):=T 1.889726e+02=T 90.00000=T Traj:=T positionsangstrom=T Step:=T 0=T Bead:=T pbc="F F F"
C      -44.24700000     -32.88590000     -68.86360000
C      -45.66240000     -32.92020000     -68.81870000
C      -46.29040000     -31.95490000     -69.69140000
C      -45.59920000     -31.22660000     -70.64430000
C      -44.15710000     -31.17460000     -70.60740000
C      -43.47320000     -32.02700000     -69.72820000
H      -43.74330000     -33.64000000     -68.32900000
H      -47.44640000     -31.91000000     -69.81470000
H      -43.62310000     -30.61840000     -71.44090000
H      -42.40220000     -32.20430000     -69.64140000
C      -46.34970000     -30.29450000     -71.63760000
H      -45.79010000     -29.99640000     -72.59590000
H      -46.52740000     -29.38670000     -71.09860000
C      -46.39180000     -33.80930000     -67.87130000
H      -45.95110000     -33.96920000     -66.89660000
H      -47.40780000     -33.47150000     -67.65370000
S      -47.95680000     -30.81150000     -72.15090000
S      -46.61500000     -35.50690000     -68.61770000
C      -47.40630000     -31.71280000     -73.66080000
H      -48.36280000     -31.68150000     -74.23220000
H      -46.66110000     -31.03040000     -74.19800000
C      -47.28730000     -35.18810000     -70.30350000
H      -47.17990000     -34.12200000     -70.46700000
H      -48.33740000     -35.40730000     -70.34430000
C      -46.63710000     -35.93230000     -71.42350000
H      -46.58130000     -36.96410000     -71.26390000
H      -47.29110000     -35.83150000     -72.32710000
C      -46.93520000     -33.14110000     -73.52040000
H      -47.17000000     -33.65880000     -74.45870000
H      -47.43430000     -33.66830000     -72.76660000
C      -45.42320000     -33.23640000     -73.26870000
C      -44.45830000     -32.49530000     -73.94410000
C      -44.81050000     -34.22410000     -72.38420000
H      -44.67850000     -31.86430000     -74.66500000
C      -43.37700000     -34.24920000     -72.49100000
C      -45.20270000     -35.43710000     -71.59090000
C      -44.11600000     -36.07980000     -71.11740000
S      -42.80110000     -32.98640000     -73.54390000
S      -42.51680000     -35.44380000     -71.58810000
H      -44.18400000     -36.89490000     -70.39060000
