40
Properties=species:S:1:pos:R:3 #=T CELL(abcABC):=T 1.889726e+02=T 90.00000=T Traj:=T positionsangstrom=T Step:=T 0=T Bead:=T pbc="F F F"
C      -44.52020000     -32.89300000     -68.51720000
C      -45.90000000     -32.96130000     -68.69180000
C      -46.41340000     -32.14050000     -69.72660000
C      -45.67480000     -31.18380000     -70.41610000
C      -44.25920000     -31.14510000     -70.21000000
C      -43.73420000     -32.02710000     -69.29540000
H      -44.13570000     -33.65170000     -67.80630000
H      -47.50590000     -32.23590000     -69.94160000
H      -43.75020000     -30.31410000     -70.59760000
H      -42.65970000     -31.96000000     -69.15470000
C      -46.42030000     -30.27420000     -71.41530000
H      -45.74830000     -30.13960000     -72.24320000
H      -46.43420000     -29.29170000     -70.91920000
C      -46.68470000     -33.96230000     -67.96990000
H      -46.46780000     -34.10090000     -66.90700000
H      -47.78670000     -33.89130000     -67.98620000
S      -47.99110000     -30.87720000     -72.14310000
S      -46.36840000     -35.60380000     -68.73490000
C      -47.50470000     -31.70700000     -73.69260000
H      -48.41300000     -31.82360000     -74.32230000
H      -46.75040000     -31.07630000     -74.16590000
C      -47.11010000     -35.27730000     -70.46640000
H      -47.03910000     -34.14350000     -70.61000000
H      -48.19990000     -35.54210000     -70.26990000
C      -46.49140000     -36.04830000     -71.65650000
H      -46.49820000     -37.14060000     -71.50670000
H      -47.09460000     -35.89710000     -72.55020000
C      -46.90790000     -33.17720000     -73.50380000
H      -47.25210000     -33.71720000     -74.40900000
H      -47.45460000     -33.63600000     -72.69450000
C      -45.41660000     -33.20870000     -73.24240000
C      -44.49980000     -32.29010000     -73.72860000
C      -44.69400000     -34.25410000     -72.52470000
H      -44.78530000     -31.42130000     -74.31290000
C      -43.32800000     -34.06130000     -72.56680000
C      -45.04910000     -35.53660000     -71.92610000
C      -43.97310000     -36.16960000     -71.42930000
S      -42.80040000     -32.76420000     -73.52500000
S      -42.40610000     -35.35670000     -71.75950000
H      -44.06660000     -37.09660000     -70.85620000
