40
Properties=species:S:1:pos:R:3 #=T CELL(abcABC):=T 1.889726e+02=T 90.00000=T Traj:=T positionsangstrom=T Step:=T 0=T Bead:=T pbc="F F F"
C      -44.43510000     -32.72520000     -68.47170000
C      -45.82510000     -32.97710000     -68.71280000
C      -46.44820000     -32.04430000     -69.52110000
C      -45.76050000     -31.05190000     -70.29270000
C      -44.41820000     -30.90660000     -70.12830000
C      -43.78460000     -31.75390000     -69.16160000
H      -44.04110000     -33.35210000     -67.66220000
H      -47.51630000     -32.19240000     -69.66260000
H      -43.83130000     -30.32960000     -70.84940000
H      -42.74890000     -31.61300000     -68.98310000
C      -46.41720000     -30.21320000     -71.36090000
H      -45.65910000     -30.05130000     -72.21120000
H      -46.59000000     -29.25940000     -70.91980000
C      -46.58170000     -34.14230000     -68.03010000
H      -46.02320000     -34.26220000     -67.11220000
H      -47.60550000     -33.82290000     -67.84240000
S      -47.97980000     -30.86950000     -72.14260000
S      -46.53920000     -35.78050000     -68.94590000
C      -47.45460000     -31.77550000     -73.65730000
H      -48.39210000     -31.93100000     -74.19690000
H      -46.82200000     -31.12010000     -74.26430000
C      -47.32010000     -35.41920000     -70.51400000
H      -47.31420000     -34.36920000     -70.59090000
H      -48.30690000     -35.78070000     -70.58610000
C      -46.49180000     -36.11820000     -71.71210000
H      -46.52290000     -37.13290000     -71.44540000
H      -47.05750000     -36.01540000     -72.67990000
C      -46.88020000     -33.18850000     -73.46140000
H      -47.12300000     -33.86640000     -74.29550000
H      -47.32320000     -33.70870000     -72.58500000
C      -45.36460000     -33.26170000     -73.32490000
C      -44.41090000     -32.34320000     -73.81860000
C      -44.64690000     -34.31210000     -72.63990000
H      -44.57290000     -31.46240000     -74.49170000
C      -43.25230000     -34.09180000     -72.63070000
C      -45.04430000     -35.51750000     -71.89850000
C      -43.95050000     -36.17200000     -71.42800000
S      -42.72050000     -32.64480000     -73.37130000
S      -42.37990000     -35.41340000     -71.78400000
H      -44.02500000     -37.04500000     -70.84500000
