40
Properties=species:S:1:pos:R:3 #=T CELL(abcABC):=T 1.889726e+02=T 90.00000=T Traj:=T positionsangstrom=T Step:=T 0=T Bead:=T pbc="F F F"
C      -44.51400000     -33.03540000     -68.60530000
C      -45.83090000     -33.05270000     -68.89180000
C      -46.40910000     -32.15470000     -69.75930000
C      -45.68730000     -31.12170000     -70.30210000
C      -44.29050000     -31.13620000     -70.09570000
C      -43.73240000     -32.05170000     -69.23820000
H      -44.01290000     -33.72480000     -67.93370000
H      -47.50830000     -32.18840000     -69.91120000
H      -43.68330000     -30.41290000     -70.57750000
H      -42.64030000     -32.07520000     -69.02810000
C      -46.34360000     -30.15580000     -71.29480000
H      -45.58340000     -30.02120000     -72.02450000
H      -46.61380000     -29.16290000     -70.91140000
C      -46.62420000     -34.16620000     -68.20230000
H      -46.38720000     -34.37500000     -67.15680000
H      -47.76650000     -33.94750000     -68.22950000
S      -47.89240000     -30.82700000     -72.08000000
S      -46.52410000     -35.85870000     -69.04760000
C      -47.43160000     -31.64740000     -73.69840000
H      -48.37900000     -31.84180000     -74.23100000
H      -46.71280000     -31.08670000     -74.28670000
C      -47.37140000     -35.51500000     -70.75700000
H      -47.43650000     -34.45540000     -70.94600000
H      -48.36910000     -35.89980000     -70.74810000
C      -46.49370000     -36.07670000     -71.88630000
H      -46.44610000     -37.14800000     -71.65030000
H      -47.01040000     -36.02750000     -72.83500000
C      -46.85090000     -33.07530000     -73.54320000
H      -47.06900000     -33.62220000     -74.50640000
H      -47.35720000     -33.70910000     -72.83170000
C      -45.35180000     -33.13120000     -73.26570000
C      -44.38740000     -32.23590000     -73.71110000
C      -44.68170000     -34.16230000     -72.51060000
H      -44.61200000     -31.26230000     -74.26080000
C      -43.27570000     -34.02980000     -72.43460000
C      -45.11540000     -35.45250000     -71.96530000
C      -44.04460000     -36.14340000     -71.38600000
S      -42.71970000     -32.50650000     -73.11790000
S      -42.49950000     -35.36880000     -71.65060000
H      -43.97490000     -37.10470000     -70.88360000
