40
Properties=species:S:1:pos:R:3 #=T CELL(abcABC):=T 1.889726e+02=T 90.00000=T Traj:=T positionsangstrom=T Step:=T 0=T Bead:=T pbc="F F F"
C      -44.43650000     -32.82480000     -68.50470000
C      -45.78340000     -33.10840000     -68.78470000
C      -46.41810000     -32.30810000     -69.76650000
C      -45.75700000     -31.21410000     -70.37150000
C      -44.41120000     -30.97790000     -70.04670000
C      -43.72170000     -31.75510000     -69.10400000
H      -43.84270000     -33.42370000     -67.80410000
H      -47.45150000     -32.50930000     -69.99040000
H      -43.92100000     -30.08550000     -70.46890000
H      -42.67810000     -31.55130000     -68.84790000
C      -46.35330000     -30.27060000     -71.39650000
H      -45.65560000     -30.00780000     -72.22330000
H      -46.72810000     -29.31900000     -70.97040000
C      -46.63690000     -34.10460000     -68.07660000
H      -46.31450000     -34.32450000     -67.04000000
H      -47.67100000     -33.83450000     -67.98990000
S      -47.98380000     -30.86540000     -72.11950000
S      -46.54860000     -35.71240000     -68.99390000
C      -47.39050000     -31.63390000     -73.72140000
H      -48.19270000     -31.47540000     -74.43480000
H      -46.66020000     -30.89760000     -74.15850000
C      -47.22400000     -35.30420000     -70.72760000
H      -47.28290000     -34.18140000     -70.75770000
H      -48.32510000     -35.65790000     -70.71730000
C      -46.52160000     -36.03700000     -71.82480000
H      -46.48990000     -37.12480000     -71.66400000
H      -47.08030000     -35.80230000     -72.74690000
C      -46.81890000     -33.04080000     -73.50150000
H      -46.85580000     -33.54340000     -74.46770000
H      -47.50820000     -33.54770000     -72.79370000
C      -45.38230000     -33.16440000     -73.11770000
C      -44.44920000     -32.26390000     -73.64260000
C      -44.68180000     -34.25920000     -72.48680000
H      -44.72480000     -31.39900000     -74.36210000
C      -43.24270000     -34.10070000     -72.49590000
C      -45.08810000     -35.54020000     -71.91940000
C      -43.99100000     -36.28790000     -71.46820000
S      -42.71210000     -32.67750000     -73.37710000
S      -42.44330000     -35.42830000     -71.64340000
H      -44.04440000     -37.24860000     -70.99290000
