40
Properties=species:S:1:pos:R:3 #=T CELL(abcABC):=T 1.889726e+02=T 90.00000=T Traj:=T positionsangstrom=T Step:=T 0=T Bead:=T pbc="F F F"
C      -44.40560000     -33.37570000     -68.64380000
C      -45.79110000     -33.41870000     -68.77260000
C      -46.53800000     -32.37330000     -69.40030000
C      -45.79030000     -31.39090000     -70.08630000
C      -44.38660000     -31.37500000     -69.94360000
C      -43.63170000     -32.33100000     -69.29930000
H      -43.85310000     -34.14310000     -68.13640000
H      -47.59330000     -32.36380000     -69.57570000
H      -43.87780000     -30.51520000     -70.45760000
H      -42.59250000     -32.28240000     -69.21770000
C      -46.52490000     -30.19510000     -70.77880000
H      -45.81830000     -29.59290000     -71.44500000
H      -46.91480000     -29.44260000     -70.06730000
C      -46.60700000     -34.66390000     -68.22760000
H      -46.17880000     -34.94860000     -67.25780000
H      -47.62110000     -34.40370000     -67.93770000
S      -48.02760000     -30.70350000     -71.70710000
S      -46.64110000     -36.06710000     -69.44050000
C      -47.22010000     -31.23250000     -73.34240000
H      -47.94920000     -30.98000000     -74.12740000
H      -46.37920000     -30.51690000     -73.46510000
C      -47.36900000     -35.32540000     -70.95350000
H      -47.47020000     -34.18880000     -70.91040000
H      -48.42510000     -35.76930000     -71.12120000
C      -46.58880000     -35.74730000     -72.27180000
H      -46.58930000     -36.79530000     -72.23130000
H      -47.01690000     -35.38000000     -73.19880000
C      -46.72670000     -32.67790000     -73.47940000
H      -46.97980000     -33.11500000     -74.41890000
H      -47.23010000     -33.27180000     -72.68280000
C      -45.15500000     -32.86590000     -73.31200000
C      -44.16950000     -31.96290000     -73.60840000
C      -44.58870000     -33.99480000     -72.67300000
H      -44.30370000     -30.94610000     -74.09890000
C      -43.20650000     -33.93800000     -72.46230000
C      -45.16550000     -35.30290000     -72.21910000
C      -44.18940000     -36.10710000     -71.68990000
S      -42.50360000     -32.51020000     -73.15030000
S      -42.61930000     -35.37680000     -71.78500000
H      -44.35560000     -37.12380000     -71.23270000
