40
Properties=species:S:1:pos:R:3 #=T CELL(abcABC):=T 1.889726e+02=T 90.00000=T Traj:=T positionsangstrom=T Step:=T 0=T Bead:=T pbc="F F F"
C      -44.36630000     -33.48200000     -68.87890000
C      -45.74420000     -33.62740000     -68.98850000
C      -46.45710000     -32.60770000     -69.60860000
C      -45.83900000     -31.46130000     -70.07140000
C      -44.43780000     -31.36580000     -70.03370000
C      -43.73880000     -32.34260000     -69.44720000
H      -43.76050000     -34.17730000     -68.30780000
H      -47.54190000     -32.71780000     -69.59620000
H      -43.89770000     -30.51090000     -70.37210000
H      -42.64900000     -32.40650000     -69.31930000
C      -46.69470000     -30.32740000     -70.69370000
H      -46.02580000     -29.74320000     -71.32290000
H      -47.11210000     -29.75700000     -69.85510000
C      -46.47340000     -34.83660000     -68.30770000
H      -45.87180000     -35.21970000     -67.48760000
H      -47.41610000     -34.58640000     -67.90460000
S      -48.17010000     -31.03530000     -71.71650000
S      -46.53380000     -36.30370000     -69.37610000
C      -47.35830000     -31.26140000     -73.40500000
H      -48.14010000     -31.18100000     -74.10120000
H      -46.68370000     -30.41200000     -73.51410000
C      -47.29030000     -35.71920000     -70.96460000
H      -47.42660000     -34.63450000     -70.84490000
H      -48.21820000     -36.26040000     -71.11370000
C      -46.37980000     -35.82880000     -72.20260000
H      -46.26460000     -36.91270000     -72.28440000
H      -46.95100000     -35.52050000     -73.09500000
C      -46.72210000     -32.59990000     -73.45770000
H      -46.77050000     -32.89490000     -74.52010000
H      -47.28380000     -33.37330000     -72.84670000
C      -45.27820000     -32.68390000     -73.00360000
C      -44.40820000     -31.66000000     -73.20280000
C      -44.65960000     -33.87700000     -72.47450000
H      -44.62010000     -30.71180000     -73.53510000
C      -43.26550000     -33.66700000     -72.44830000
C      -45.03460000     -35.22680000     -72.20980000
C      -43.92020000     -35.98690000     -71.86880000
S      -42.72820000     -32.04220000     -72.87470000
S      -42.37690000     -35.10150000     -72.07980000
H      -43.80230000     -36.94350000     -71.47100000
