40
Properties=species:S:1:pos:R:3 #=T CELL(abcABC):=T 1.889726e+02=T 90.00000=T Traj:=T positionsangstrom=T Step:=T 0=T Bead:=T pbc="F F F"
C      -44.36130000     -33.41110000     -69.00900000
C      -45.75450000     -33.34060000     -69.00960000
C      -46.44320000     -32.34370000     -69.73550000
C      -45.70940000     -31.40410000     -70.43940000
C      -44.30680000     -31.42750000     -70.37450000
C      -43.63960000     -32.39550000     -69.61470000
H      -43.82080000     -34.25520000     -68.61750000
H      -47.49870000     -32.29170000     -69.73050000
H      -43.76370000     -30.52050000     -70.70390000
H      -42.59940000     -32.25490000     -69.53420000
C      -46.25890000     -30.24080000     -71.25180000
H      -45.62790000     -29.88600000     -72.06680000
H      -46.29640000     -29.38180000     -70.69990000
C      -46.50400000     -34.39830000     -68.25760000
H      -46.19630000     -34.55860000     -67.16320000
H      -47.54870000     -34.01690000     -68.02690000
S      -47.90710000     -30.64320000     -72.04360000
S      -46.58910000     -35.94680000     -69.14090000
C      -47.39630000     -31.39230000     -73.61490000
H      -48.20690000     -31.27070000     -74.33040000
H      -46.66530000     -30.71050000     -74.11550000
C      -47.35020000     -35.42280000     -70.72840000
H      -47.39810000     -34.36470000     -70.79690000
H      -48.35860000     -35.73690000     -70.75090000
C      -46.56850000     -35.89820000     -71.97220000
H      -46.54070000     -36.99000000     -71.95070000
H      -47.22950000     -35.51890000     -72.79490000
C      -46.83030000     -32.86570000     -73.52030000
H      -46.92570000     -33.44160000     -74.46320000
H      -47.51190000     -33.31870000     -72.74590000
C      -45.34740000     -32.98210000     -73.17750000
C      -44.40430000     -32.04160000     -73.45460000
C      -44.70280000     -34.12390000     -72.48250000
H      -44.58060000     -31.07870000     -73.85530000
C      -43.33630000     -33.96480000     -72.28470000
C      -45.15610000     -35.37260000     -71.98710000
C      -44.11410000     -36.09140000     -71.44670000
S      -42.68910000     -32.42920000     -72.95990000
S      -42.56560000     -35.29490000     -71.43360000
H      -44.13240000     -37.11240000     -71.03560000
