40
Properties=species:S:1:pos:R:3 #=T CELL(abcABC):=T 1.889726e+02=T 90.00000=T Traj:=T positionsangstrom=T Step:=T 0=T Bead:=T pbc="F F F"
C      -44.51740000     -33.65520000     -69.01160000
C      -45.94460000     -33.83480000     -69.08880000
C      -46.74020000     -32.72310000     -69.54300000
C      -46.14390000     -31.52520000     -69.92330000
C      -44.75820000     -31.37580000     -69.85410000
C      -43.96010000     -32.41600000     -69.38170000
H      -43.89850000     -34.47280000     -68.62310000
H      -47.82260000     -32.85580000     -69.53100000
H      -44.32210000     -30.43480000     -70.09870000
H      -42.94710000     -32.12870000     -69.24220000
C      -47.14040000     -30.45570000     -70.39860000
H      -46.72110000     -29.57410000     -70.89700000
H      -47.67920000     -30.15990000     -69.45330000
C      -46.59800000     -35.04710000     -68.60450000
H      -46.19960000     -35.38500000     -67.61790000
H      -47.70360000     -35.06910000     -68.50460000
S      -48.44780000     -31.21310000     -71.45190000
S      -46.11430000     -36.49800000     -69.64450000
C      -47.65190000     -31.43440000     -73.12470000
H      -48.45990000     -31.44750000     -73.79270000
H      -46.98960000     -30.59700000     -73.29060000
C      -46.91890000     -35.98270000     -71.27770000
H      -47.40730000     -35.00300000     -71.12030000
H      -47.67380000     -36.76740000     -71.58940000
C      -45.90740000     -35.98170000     -72.34390000
H      -45.56300000     -37.03540000     -72.58400000
H      -46.25500000     -35.70220000     -73.32750000
C      -46.84010000     -32.74240000     -73.32840000
H      -46.97820000     -33.06500000     -74.37750000
H      -47.30340000     -33.53120000     -72.70780000
C      -45.31900000     -32.64510000     -73.02410000
C      -44.58310000     -31.55140000     -73.35260000
C      -44.48790000     -33.78750000     -72.49300000
H      -44.95010000     -30.58380000     -73.76040000
C      -43.15970000     -33.39730000     -72.50870000
C      -44.60750000     -35.20340000     -72.19520000
C      -43.42380000     -35.70520000     -71.65590000
S      -42.89840000     -31.76090000     -73.13560000
S      -42.05370000     -34.59410000     -71.86830000
H      -43.38170000     -36.65430000     -71.16090000
