40
Properties=species:S:1:pos:R:3 #=T CELL(abcABC):=T 1.889726e+02=T 90.00000=T Traj:=T positionsangstrom=T Step:=T 0=T Bead:=T pbc="F F F"
C      -48.10130000     -32.84930000     -72.22130000
C      -48.14520000     -33.39000000     -70.92150000
C      -47.44730000     -32.69820000     -69.88750000
C      -46.63550000     -31.55150000     -70.16580000
C      -46.60530000     -31.06620000     -71.46160000
C      -47.34010000     -31.67390000     -72.49040000
H      -48.64860000     -33.32260000     -73.03530000
H      -47.62710000     -32.93490000     -68.87600000
H      -45.83750000     -30.33900000     -71.76090000
H      -47.29030000     -31.29980000     -73.52750000
C      -45.92760000     -30.80400000     -69.11460000
H      -46.50840000     -30.47360000     -68.29550000
H      -45.23130000     -29.99210000     -69.44500000
C      -48.74590000     -34.73450000     -70.57390000
H      -49.02140000     -34.90780000     -69.49430000
H      -49.70190000     -34.97150000     -71.17470000
S      -44.96680000     -32.09780000     -67.94540000
S      -47.55680000     -36.03040000     -71.11190000
C      -43.22670000     -32.00910000     -68.73660000
H      -42.95860000     -31.01240000     -69.16260000
H      -42.57800000     -32.09150000     -67.90770000
C      -45.96700000     -35.62000000     -70.13610000
H      -46.18430000     -36.12460000     -69.12800000
H      -45.97340000     -34.59260000     -69.93440000
C      -44.65180000     -35.97790000     -70.71340000
H      -43.82630000     -35.98640000     -69.94610000
H      -44.70270000     -37.02250000     -70.99420000
C      -42.87570000     -33.13060000     -69.75680000
H      -43.25620000     -34.13750000     -69.42630000
H      -41.82170000     -33.32950000     -69.84550000
C      -43.25070000     -32.83350000     -71.15680000
C      -43.03230000     -31.63080000     -71.75360000
C      -43.64370000     -33.91480000     -72.03920000
H      -42.77800000     -30.76710000     -71.14730000
C      -43.67830000     -33.46330000     -73.35410000
C      -44.20700000     -35.27350000     -72.01020000
C      -44.51150000     -35.75130000     -73.23790000
S      -43.37590000     -31.71340000     -73.49790000
S      -44.29400000     -34.65210000     -74.53290000
H      -45.15430000     -36.56120000     -73.57490000
