40
Properties=species:S:1:pos:R:3 #=T CELL(abcABC):=T 1.889726e+02=T 90.00000=T Traj:=T positionsangstrom=T Step:=T 0=T Bead:=T pbc="F F F"
C      -44.55950000     -33.64810000     -68.53700000
C      -45.88910000     -34.02870000     -68.69810000
C      -46.73930000     -33.17500000     -69.44100000
C      -46.30600000     -31.95890000     -70.02850000
C      -44.93840000     -31.63480000     -69.82390000
C      -44.00720000     -32.43030000     -69.11350000
H      -43.83250000     -34.34930000     -68.09950000
H      -47.76000000     -33.58870000     -69.59240000
H      -44.66790000     -30.68040000     -70.26920000
H      -42.97030000     -32.14990000     -69.00250000
C      -47.22240000     -30.92390000     -70.59520000
H      -46.62610000     -30.10570000     -71.03710000
H      -47.91920000     -30.48580000     -69.86030000
C      -46.34300000     -35.41110000     -68.31210000
H      -45.64210000     -35.80940000     -67.50200000
H      -47.35020000     -35.50040000     -67.88290000
S      -48.61290000     -31.43840000     -71.75090000
S      -45.98050000     -36.69510000     -69.64330000
C      -47.88420000     -31.68090000     -73.36160000
H      -48.77970000     -31.84300000     -74.08260000
H      -47.31030000     -30.79670000     -73.68690000
C      -46.60740000     -35.93450000     -71.28760000
H      -46.94970000     -34.89110000     -71.08820000
H      -47.48370000     -36.47910000     -71.67510000
C      -45.50750000     -35.96900000     -72.45770000
H      -45.25350000     -37.04070000     -72.52930000
H      -45.96610000     -35.77510000     -73.43810000
C      -46.93670000     -32.85250000     -73.42810000
H      -46.93760000     -33.28470000     -74.43500000
H      -47.28290000     -33.69910000     -72.78740000
C      -45.43550000     -32.55600000     -73.01110000
C      -44.86080000     -31.39120000     -73.30360000
C      -44.46470000     -33.56630000     -72.53220000
H      -45.31270000     -30.45960000     -73.46840000
C      -43.17610000     -33.01650000     -72.42070000
C      -44.36210000     -34.99210000     -72.36950000
C      -43.09440000     -35.47460000     -72.08370000
S      -43.18540000     -31.30270000     -72.74500000
S      -41.91920000     -34.09530000     -72.05830000
H      -42.75110000     -36.46940000     -71.78400000
