40
Properties=species:S:1:pos:R:3 #=T CELL(abcABC):=T 1.889726e+02=T 90.00000=T Traj:=T positionsangstrom=T Step:=T 0=T Bead:=T pbc="F F F"
C      -44.19420000     -33.71050000     -68.98820000
C      -45.46880000     -34.25730000     -69.20560000
C      -46.52810000     -33.40170000     -69.61490000
C      -46.38180000     -32.00280000     -69.73910000
C      -45.07910000     -31.48770000     -69.55870000
C      -44.05310000     -32.33690000     -69.12450000
H      -43.25950000     -34.31720000     -68.70000000
H      -47.52670000     -33.79450000     -69.88250000
H      -44.85670000     -30.46940000     -69.51450000
H      -43.13480000     -31.86260000     -68.80420000
C      -47.46630000     -31.06870000     -70.31530000
H      -46.99880000     -30.26120000     -70.89030000
H      -47.95220000     -30.54280000     -69.52480000
C      -45.85000000     -35.68280000     -68.93090000
H      -45.53090000     -35.96120000     -67.93490000
H      -46.94300000     -35.75310000     -69.01010000
S      -48.75760000     -31.93420000     -71.37980000
S      -45.19430000     -37.00870000     -70.17070000
C      -48.07480000     -31.60210000     -73.11370000
H      -48.95110000     -31.82050000     -73.77500000
H      -47.80680000     -30.54940000     -73.38250000
C      -46.29240000     -36.59860000     -71.59820000
H      -47.08280000     -36.02340000     -71.13970000
H      -46.79490000     -37.53110000     -71.72490000
C      -45.58970000     -35.84700000     -72.68960000
H      -45.10520000     -36.51340000     -73.34470000
H      -46.44260000     -35.38380000     -73.27770000
C      -47.07600000     -32.66010000     -73.49300000
H      -47.00840000     -32.70380000     -74.58890000
H      -47.32730000     -33.63420000     -73.06750000
C      -45.63670000     -32.33460000     -73.00240000
C      -45.16420000     -31.04520000     -72.94810000
C      -44.64400000     -33.33960000     -72.56270000
H      -45.66060000     -30.23770000     -73.47000000
C      -43.39170000     -32.71590000     -72.32840000
C      -44.58250000     -34.79360000     -72.32760000
C      -43.24010000     -35.17570000     -72.07190000
S      -43.47880000     -30.96470000     -72.43530000
S      -42.10870000     -33.84020000     -71.85900000
H      -42.93340000     -36.12190000     -71.78150000
