40
Properties=species:S:1:pos:R:3 #=T CELL(abcABC):=T 1.889726e+02=T 90.00000=T Traj:=T positionsangstrom=T Step:=T 0=T Bead:=T pbc="F F F"
C      -44.35940000     -33.67930000     -68.64670000
C      -45.63100000     -34.19740000     -68.90190000
C      -46.54460000     -33.37700000     -69.51080000
C      -46.30350000     -32.07120000     -69.87770000
C      -45.01780000     -31.56390000     -69.68790000
C      -44.07930000     -32.35000000     -69.05100000
H      -43.61790000     -34.22840000     -68.15780000
H      -47.58030000     -33.72850000     -69.64290000
H      -44.81960000     -30.52930000     -70.02650000
H      -43.04940000     -31.97790000     -68.85750000
C      -47.32480000     -31.01940000     -70.22910000
H      -46.82250000     -30.24910000     -70.83170000
H      -47.82770000     -30.53580000     -69.39540000
C      -45.95670000     -35.66350000     -68.78250000
H      -45.34170000     -36.11730000     -68.00940000
H      -46.95440000     -35.88750000     -68.42030000
S      -48.71380000     -31.61020000     -71.40590000
S      -45.48170000     -36.82880000     -70.10630000
C      -48.01550000     -31.77310000     -73.11190000
H      -48.86220000     -32.06050000     -73.74140000
H      -47.60180000     -30.77760000     -73.48270000
C      -46.39720000     -36.10790000     -71.59460000
H      -46.69040000     -35.16130000     -71.18330000
H      -47.23890000     -36.72670000     -71.83080000
C      -45.42860000     -35.93740000     -72.84670000
H      -44.97510000     -36.93820000     -73.14760000
H      -46.11040000     -35.68530000     -73.63200000
C      -46.96510000     -32.89090000     -73.36540000
H      -47.10810000     -33.22150000     -74.40980000
H      -47.26200000     -33.83640000     -72.80230000
C      -45.56690000     -32.54790000     -73.16880000
C      -45.09100000     -31.25350000     -73.29780000
C      -44.56110000     -33.47610000     -72.61270000
H      -45.72700000     -30.30960000     -73.44920000
C      -43.42750000     -32.79880000     -72.23840000
C      -44.43700000     -34.92640000     -72.57610000
C      -43.14970000     -35.21170000     -72.04590000
S      -43.39360000     -31.15590000     -72.69670000
S      -42.15090000     -33.83590000     -71.68730000
H      -42.79230000     -36.24520000     -71.95430000
