40
Properties=species:S:1:pos:R:3 #=T CELL(abcABC):=T 1.889726e+02=T 90.00000=T Traj:=T positionsangstrom=T Step:=T 0=T Bead:=T pbc="F F F"
C      -44.27360000     -33.70740000     -68.85320000
C      -45.50740000     -34.26070000     -69.11660000
C      -46.55790000     -33.39650000     -69.59690000
C      -46.35050000     -32.03900000     -69.83560000
C      -45.06870000     -31.51660000     -69.61960000
C      -44.04080000     -32.35910000     -69.14880000
H      -43.46130000     -34.32460000     -68.46450000
H      -47.50760000     -33.78860000     -69.80650000
H      -44.85010000     -30.51060000     -69.85690000
H      -43.06330000     -31.94830000     -69.06100000
C      -47.49930000     -31.12030000     -70.20360000
H      -47.23170000     -30.18370000     -70.77410000
H      -48.13790000     -30.79480000     -69.33250000
C      -45.80800000     -35.75500000     -68.83760000
H      -45.29550000     -36.18970000     -67.98420000
H      -46.83610000     -36.09680000     -68.63890000
S      -48.71260000     -31.95260000     -71.24470000
S      -45.17220000     -36.74830000     -70.20710000
C      -48.17060000     -31.78160000     -73.04730000
H      -49.05430000     -31.94210000     -73.59730000
H      -47.78270000     -30.75490000     -73.26240000
C      -46.24290000     -36.33870000     -71.71130000
H      -46.76990000     -35.44440000     -71.53130000
H      -46.83100000     -37.19330000     -72.09480000
C      -45.47680000     -35.89260000     -72.99240000
H      -44.91880000     -36.73860000     -73.43600000
H      -46.16690000     -35.51690000     -73.71790000
C      -47.00050000     -32.75370000     -73.44300000
H      -47.18290000     -32.81220000     -74.51860000
H      -47.26040000     -33.78310000     -73.14060000
C      -45.58590000     -32.35110000     -73.05670000
C      -45.17010000     -31.05720000     -72.92410000
C      -44.64480000     -33.36320000     -72.62500000
H      -45.69520000     -30.17930000     -73.13600000
C      -43.44090000     -32.76100000     -72.27700000
C      -44.44690000     -34.81890000     -72.68770000
C      -43.19230000     -35.22290000     -72.26540000
S      -43.53630000     -30.98780000     -72.36200000
S      -42.22020000     -33.86470000     -71.77110000
H      -42.83870000     -36.27900000     -72.23300000
