40
Properties=species:S:1:pos:R:3 #=T CELL(abcABC):=T 1.889726e+02=T 90.00000=T Traj:=T positionsangstrom=T Step:=T 0=T Bead:=T pbc="F F F"
C      -44.54770000     -33.67140000     -68.83980000
C      -45.98190000     -33.86830000     -68.87910000
C      -46.76690000     -32.81460000     -69.32770000
C      -46.20950000     -31.67860000     -69.92160000
C      -44.85910000     -31.44760000     -69.86720000
C      -44.05950000     -32.46760000     -69.31660000
H      -43.95120000     -34.50580000     -68.56480000
H      -47.82410000     -33.03500000     -69.40680000
H      -44.47680000     -30.52900000     -70.30760000
H      -42.92760000     -32.38010000     -69.36220000
C      -47.12300000     -30.64120000     -70.49340000
H      -46.60100000     -30.02190000     -71.24910000
H      -47.53630000     -30.00900000     -69.71280000
C      -46.48670000     -35.21660000     -68.45610000
H      -46.16360000     -35.48750000     -67.45530000
H      -47.58230000     -35.22670000     -68.48630000
S      -48.60880000     -31.23760000     -71.51160000
S      -45.92030000     -36.58480000     -69.59070000
C      -47.70680000     -31.53740000     -73.13930000
H      -48.55320000     -31.72130000     -73.87120000
H      -47.02800000     -30.62280000     -73.40990000
C      -46.74280000     -36.08670000     -71.17760000
H      -47.06470000     -35.06230000     -71.09000000
H      -47.58680000     -36.77050000     -71.28640000
C      -45.81200000     -35.99010000     -72.42690000
H      -45.56600000     -37.00490000     -72.62760000
H      -46.48010000     -35.62210000     -73.22150000
C      -46.83090000     -32.81240000     -73.27500000
H      -47.14880000     -33.34610000     -74.21560000
H      -47.18900000     -33.50850000     -72.54520000
C      -45.28770000     -32.62150000     -73.20820000
C      -44.63780000     -31.46500000     -73.50110000
C      -44.42720000     -33.71680000     -72.75760000
H      -45.09960000     -30.61760000     -74.07030000
C      -43.15600000     -33.23750000     -72.46180000
C      -44.59070000     -35.06090000     -72.35340000
C      -43.44210000     -35.57910000     -71.82260000
S      -42.89400000     -31.60380000     -73.07870000
S      -42.10810000     -34.42160000     -71.85480000
H      -43.33960000     -36.57970000     -71.47350000
