40
Properties=species:S:1:pos:R:3 #=T CELL(abcABC):=T 1.889726e+02=T 90.00000=T Traj:=T positionsangstrom=T Step:=T 0=T Bead:=T pbc="F F F"
C      -44.62300000     -33.66450000     -68.67630000
C      -45.94220000     -33.98990000     -68.92730000
C      -46.70550000     -33.10150000     -69.57330000
C      -46.21030000     -31.84370000     -69.97710000
C      -44.92520000     -31.47620000     -69.65720000
C      -44.13150000     -32.42530000     -68.97240000
H      -44.15680000     -34.49910000     -68.15310000
H      -47.74370000     -33.35240000     -69.72570000
H      -44.46270000     -30.54330000     -69.86430000
H      -43.13110000     -32.15380000     -68.66870000
C      -47.21580000     -30.86490000     -70.63560000
H      -46.73170000     -30.25870000     -71.37800000
H      -47.63780000     -30.20520000     -69.81530000
C      -46.45450000     -35.38070000     -68.56570000
H      -46.09390000     -35.65710000     -67.60240000
H      -47.53520000     -35.35130000     -68.54550000
S      -48.58890000     -31.76920000     -71.43200000
S      -45.93420000     -36.76200000     -69.76150000
C      -47.95180000     -31.91440000     -73.16340000
H      -48.77650000     -32.35250000     -73.69250000
H      -47.75280000     -30.92580000     -73.55030000
C      -46.54840000     -36.00910000     -71.41800000
H      -46.90850000     -35.00740000     -71.13330000
H      -47.33120000     -36.71490000     -71.59210000
C      -45.44690000     -35.99720000     -72.58920000
H      -44.96470000     -36.97420000     -72.65120000
H      -46.00910000     -35.76430000     -73.53830000
C      -46.86360000     -32.88560000     -73.39790000
H      -46.88090000     -33.24260000     -74.46000000
H      -47.21760000     -33.76530000     -72.88830000
C      -45.46210000     -32.45760000     -73.00740000
C      -44.90180000     -31.24890000     -73.20800000
C      -44.44130000     -33.48670000     -72.65950000
H      -45.36950000     -30.32940000     -73.37430000
C      -43.16150000     -32.91410000     -72.47850000
C      -44.37700000     -34.96720000     -72.47200000
C      -43.08740000     -35.33880000     -72.13080000
S      -43.19870000     -31.15630000     -72.67220000
S      -41.90900000     -34.09580000     -72.05870000
H      -42.85120000     -36.37400000     -71.87770000
