40
Properties=species:S:1:pos:R:3 #=T CELL(abcABC):=T 1.889726e+02=T 90.00000=T Traj:=T positionsangstrom=T Step:=T 0=T Bead:=T pbc="F F F"
C      -47.91050000     -33.03730000     -72.42000000
C      -48.01650000     -33.42460000     -71.10770000
C      -47.49400000     -32.63130000     -70.09400000
C      -46.79500000     -31.44350000     -70.36300000
C      -46.61160000     -31.07520000     -71.70630000
C      -47.22100000     -31.84720000     -72.70240000
H      -48.30100000     -33.50260000     -73.28850000
H      -47.56490000     -32.89910000     -69.00420000
H      -45.94210000     -30.25490000     -72.00300000
H      -47.08970000     -31.59860000     -73.68270000
C      -46.05300000     -30.68830000     -69.28360000
H      -46.83480000     -30.22450000     -68.70680000
H      -45.45000000     -29.93440000     -69.75360000
C      -48.55510000     -34.80590000     -70.68770000
H      -48.94380000     -34.67380000     -69.64640000
H      -49.41130000     -35.06630000     -71.20850000
S      -45.22340000     -31.75910000     -68.07370000
S      -47.22300000     -36.17520000     -70.78080000
C      -43.45760000     -31.84170000     -68.68700000
H      -43.18040000     -30.88640000     -69.05080000
H      -42.81840000     -31.96000000     -67.77180000
C      -45.72330000     -35.62390000     -69.83820000
H      -45.85780000     -36.11540000     -68.91880000
H      -45.61530000     -34.52450000     -69.67770000
C      -44.39620000     -36.08900000     -70.65280000
H      -43.55160000     -35.76280000     -70.03220000
H      -44.23890000     -37.17290000     -70.69680000
C      -43.14090000     -32.95920000     -69.64480000
H      -43.43760000     -33.91690000     -69.24130000
H      -42.05760000     -33.04750000     -69.52730000
C      -43.49070000     -32.85020000     -71.11130000
C      -43.26080000     -31.66950000     -71.71400000
C      -43.83400000     -33.93650000     -72.03180000
H      -42.98220000     -30.81330000     -71.09350000
C      -43.78370000     -33.48110000     -73.34390000
C      -44.29450000     -35.29470000     -71.95370000
C      -44.52390000     -35.83150000     -73.19470000
S      -43.28030000     -31.80420000     -73.48330000
S      -44.28950000     -34.71660000     -74.44530000
H      -44.67740000     -36.85800000     -73.47460000
