40
Properties=species:S:1:pos:R:3 #=T CELL(abcABC):=T 1.889726e+02=T 90.00000=T Traj:=T positionsangstrom=T Step:=T 0=T Bead:=T pbc="F F F"
C      -44.19170000     -33.98200000     -68.96070000
C      -45.49670000     -34.42320000     -68.89890000
C      -46.59400000     -33.63840000     -69.17880000
C      -46.42010000     -32.30620000     -69.58880000
C      -45.13580000     -31.75070000     -69.55170000
C      -44.07670000     -32.56600000     -69.22830000
H      -43.27050000     -34.59630000     -68.86030000
H      -47.62240000     -33.94740000     -69.22980000
H      -45.08750000     -30.66150000     -69.80360000
H      -43.06920000     -32.13050000     -69.27800000
C      -47.55470000     -31.38270000     -69.88540000
H      -47.16240000     -30.42320000     -70.32280000
H      -47.87850000     -31.11860000     -68.86420000
C      -45.63760000     -35.94490000     -68.74780000
H      -45.20090000     -36.29640000     -67.79070000
H      -46.72580000     -36.34270000     -68.65440000
S      -48.94880000     -32.06610000     -70.86410000
S      -44.82890000     -36.68220000     -70.22310000
C      -48.35050000     -32.06360000     -72.59190000
H      -49.21750000     -32.10790000     -73.25450000
H      -47.91860000     -31.05320000     -72.87880000
C      -46.01570000     -36.17500000     -71.52950000
H      -46.57970000     -35.37110000     -71.10110000
H      -46.65530000     -36.95660000     -71.86110000
C      -45.20010000     -35.81520000     -72.77420000
H      -44.65100000     -36.75230000     -73.06110000
H      -45.89220000     -35.77010000     -73.63160000
C      -47.21400000     -33.07400000     -72.92020000
H      -47.27690000     -33.54830000     -73.85190000
H      -47.22980000     -33.79810000     -72.19310000
C      -45.81950000     -32.50350000     -72.92430000
C      -45.58380000     -31.17280000     -72.96260000
C      -44.59510000     -33.28610000     -72.70300000
H      -46.24490000     -30.37220000     -72.99950000
C      -43.46530000     -32.44330000     -72.61210000
C      -44.24630000     -34.68650000     -72.64250000
C      -42.89720000     -34.86730000     -72.41520000
S      -43.90170000     -30.77480000     -72.96300000
S      -41.98370000     -33.35570000     -72.46750000
H      -42.31120000     -35.79660000     -72.60610000
