40
Properties=species:S:1:pos:R:3 #=T CELL(abcABC):=T 1.889726e+02=T 90.00000=T Traj:=T positionsangstrom=T Step:=T 0=T Bead:=T pbc="F F F"
C      -44.15790000     -33.67020000     -68.85060000
C      -45.40800000     -34.27270000     -69.02650000
C      -46.47370000     -33.52870000     -69.58030000
C      -46.42060000     -32.18000000     -69.72910000
C      -45.20990000     -31.48960000     -69.36560000
C      -44.15040000     -32.31760000     -68.98210000
H      -43.30870000     -34.25880000     -68.53680000
H      -47.35560000     -34.13460000     -69.69770000
H      -45.13810000     -30.44730000     -69.43890000
H      -43.24650000     -31.70480000     -68.87510000
C      -47.52420000     -31.26930000     -70.14200000
H      -47.12790000     -30.43470000     -70.79020000
H      -48.02140000     -30.74820000     -69.31870000
C      -45.68370000     -35.73310000     -68.72910000
H      -45.08130000     -36.17980000     -67.87310000
H      -46.70940000     -35.95170000     -68.39930000
S      -48.88590000     -32.25170000     -71.05140000
S      -45.29840000     -36.90590000     -70.18630000
C      -48.28130000     -31.93970000     -72.79110000
H      -48.97840000     -32.17490000     -73.61890000
H      -48.04510000     -30.92280000     -72.83310000
C      -46.24170000     -36.14630000     -71.62330000
H      -46.75010000     -35.25140000     -71.29410000
H      -46.88870000     -36.95750000     -71.96190000
C      -45.30840000     -35.81780000     -72.74530000
H      -44.84470000     -36.75250000     -73.02340000
H      -45.85840000     -35.45440000     -73.71710000
C      -47.15490000     -32.85540000     -73.12920000
H      -47.08580000     -32.97920000     -74.16840000
H      -47.32340000     -33.92000000     -72.90060000
C      -45.72410000     -32.45530000     -72.74140000
C      -45.30980000     -31.12950000     -72.81600000
C      -44.51780000     -33.34210000     -72.69480000
H      -45.98890000     -30.25240000     -72.89610000
C      -43.36590000     -32.52070000     -72.54860000
C      -44.29730000     -34.77250000     -72.52070000
C      -42.93740000     -35.02350000     -72.46770000
S      -43.65370000     -30.85150000     -72.56520000
S      -41.93940000     -33.55660000     -72.53560000
H      -42.50930000     -35.94570000     -72.22210000
