40
Properties=species:S:1:pos:R:3 #=T CELL(abcABC):=T 1.889726e+02=T 90.00000=T Traj:=T positionsangstrom=T Step:=T 0=T Bead:=T pbc="F F F"
C      -44.23440000     -33.67320000     -68.72590000
C      -45.45230000     -34.28540000     -69.04270000
C      -46.53740000     -33.48780000     -69.46140000
C      -46.41030000     -32.08650000     -69.71280000
C      -45.09530000     -31.49650000     -69.48000000
C      -44.08170000     -32.25960000     -68.87920000
H      -43.53000000     -34.29520000     -68.29720000
H      -47.55240000     -33.93730000     -69.70490000
H      -44.88940000     -30.38410000     -69.54410000
H      -43.11640000     -31.79870000     -68.63360000
C      -47.67210000     -31.28020000     -70.10210000
H      -47.43710000     -30.23680000     -70.49440000
H      -48.20540000     -31.01930000     -69.20130000
C      -45.73580000     -35.77090000     -68.75560000
H      -45.11350000     -36.19100000     -67.94360000
H      -46.78140000     -35.93350000     -68.41830000
S      -48.76460000     -32.17360000     -71.14710000
S      -45.40940000     -36.85160000     -70.24750000
C      -48.14470000     -32.07160000     -72.91420000
H      -49.12250000     -32.37990000     -73.44810000
H      -48.12440000     -31.02620000     -73.09710000
C      -46.27290000     -36.09810000     -71.68000000
H      -46.78760000     -35.20640000     -71.28230000
H      -47.06730000     -36.80550000     -71.90660000
C      -45.38180000     -35.84580000     -72.90040000
H      -44.88710000     -36.74490000     -73.21750000
H      -45.96030000     -35.58110000     -73.77140000
C      -46.92860000     -32.83730000     -73.42930000
H      -46.99450000     -32.80460000     -74.52990000
H      -47.23120000     -33.78730000     -73.02590000
C      -45.61480000     -32.39970000     -72.88300000
C      -45.27550000     -31.08470000     -72.92060000
C      -44.51200000     -33.30250000     -72.73690000
H      -45.88780000     -30.18070000     -73.10100000
C      -43.38430000     -32.59760000     -72.43930000
C      -44.34810000     -34.72150000     -72.74880000
C      -43.03820000     -35.08270000     -72.52710000
S      -43.55020000     -30.88850000     -72.44700000
S      -42.03920000     -33.68620000     -72.15790000
H      -42.57610000     -36.04730000     -72.53210000
