40
Properties=species:S:1:pos:R:3 #=T CELL(abcABC):=T 1.889726e+02=T 90.00000=T Traj:=T positionsangstrom=T Step:=T 0=T Bead:=T pbc="F F F"
C      -43.92330000     -33.70210000     -69.01040000
C      -45.12480000     -34.43400000     -69.09680000
C      -46.29140000     -33.74770000     -69.44150000
C      -46.32680000     -32.32900000     -69.50660000
C      -45.08770000     -31.60130000     -69.34710000
C      -43.91260000     -32.29060000     -69.27400000
H      -42.97790000     -34.23190000     -68.75520000
H      -47.24730000     -34.31110000     -69.51610000
H      -45.00390000     -30.61310000     -69.74930000
H      -42.99870000     -31.71470000     -69.18800000
C      -47.63700000     -31.58370000     -69.87170000
H      -47.28590000     -30.65850000     -70.29710000
H      -48.03080000     -31.22300000     -68.89830000
C      -45.24370000     -35.96730000     -68.87680000
H      -44.51620000     -36.24990000     -68.11100000
H      -46.27140000     -36.15030000     -68.50010000
S      -48.94800000     -32.35690000     -70.75650000
S      -44.87430000     -37.02630000     -70.34780000
C      -48.54380000     -32.31420000     -72.57260000
H      -49.44090000     -32.79140000     -72.94320000
H      -48.51830000     -31.26760000     -72.93540000
C      -45.97340000     -36.19770000     -71.61230000
H      -46.48880000     -35.29310000     -71.19970000
H      -46.74880000     -36.92340000     -71.97830000
C      -45.10170000     -35.78040000     -72.85380000
H      -44.50480000     -36.66950000     -73.11660000
H      -45.67440000     -35.54910000     -73.78670000
C      -47.34650000     -33.15990000     -72.96760000
H      -47.34110000     -33.41820000     -74.00380000
H      -47.31600000     -34.09840000     -72.43990000
C      -45.99210000     -32.48210000     -72.86040000
C      -45.78270000     -31.14840000     -72.96250000
C      -44.69650000     -33.21940000     -72.68820000
H      -46.63640000     -30.44210000     -73.20650000
C      -43.60250000     -32.32880000     -72.81370000
C      -44.22860000     -34.56920000     -72.47950000
C      -42.86610000     -34.65290000     -72.29670000
S      -44.10530000     -30.59800000     -72.86150000
S      -42.05970000     -33.10780000     -72.37410000
H      -42.36770000     -35.57830000     -72.31530000
