40
Properties=species:S:1:pos:R:3 #=T CELL(abcABC):=T 1.889726e+02=T 90.00000=T Traj:=T positionsangstrom=T Step:=T 0=T Bead:=T pbc="F F F"
C      -43.80060000     -33.48330000     -68.72260000
C      -44.83380000     -34.44760000     -69.05250000
C      -46.12290000     -33.93090000     -69.39250000
C      -46.38570000     -32.57860000     -69.46690000
C      -45.38360000     -31.70400000     -69.16750000
C      -44.13450000     -32.13650000     -68.84400000
H      -42.72080000     -33.78020000     -68.63400000
H      -46.96860000     -34.57670000     -69.59880000
H      -45.65930000     -30.64180000     -69.27600000
H      -43.27840000     -31.50100000     -68.71620000
C      -47.86000000     -32.04320000     -69.64610000
H      -47.96610000     -30.97150000     -70.01820000
H      -48.38130000     -32.23160000     -68.66680000
C      -44.79950000     -35.93910000     -69.00900000
H      -44.07240000     -36.33760000     -68.23950000
H      -45.82240000     -36.20030000     -68.81460000
S      -48.84640000     -32.96810000     -70.94270000
S      -44.44350000     -36.72180000     -70.67560000
C      -48.55880000     -32.04850000     -72.51630000
H      -49.49680000     -31.89030000     -73.09040000
H      -48.29930000     -30.98870000     -72.32270000
C      -45.92780000     -36.16140000     -71.62900000
H      -46.51660000     -35.51930000     -71.01980000
H      -46.55050000     -37.10660000     -71.75210000
C      -45.46280000     -35.61840000     -72.98510000
H      -44.97790000     -36.47880000     -73.41820000
H      -46.36270000     -35.30110000     -73.57140000
C      -47.43450000     -32.63830000     -73.44370000
H      -47.60410000     -32.24610000     -74.46200000
H      -47.66830000     -33.68860000     -73.54750000
C      -46.01480000     -32.26450000     -72.98290000
C      -45.71930000     -30.91370000     -72.94360000
C      -44.86940000     -33.07030000     -72.76280000
H      -46.49650000     -30.14690000     -73.01140000
C      -43.73830000     -32.27570000     -72.43990000
C      -44.49920000     -34.49640000     -72.81560000
C      -43.13640000     -34.69000000     -72.65160000
S      -44.08070000     -30.56360000     -72.41410000
S      -42.17700000     -33.29740000     -72.33040000
H      -42.59440000     -35.61240000     -72.77240000
