40
Properties=species:S:1:pos:R:3 #=T CELL(abcABC):=T 1.889726e+02=T 90.00000=T Traj:=T positionsangstrom=T Step:=T 0=T Bead:=T pbc="F F F"
C      -44.09690000     -29.65220000     -69.23490000
C      -44.76900000     -30.81060000     -68.76900000
C      -44.11040000     -32.04390000     -68.84030000
C      -42.77630000     -32.16460000     -69.20890000
C      -42.08630000     -30.96540000     -69.62950000
C      -42.74230000     -29.76140000     -69.60890000
H      -44.60470000     -28.70810000     -69.20350000
H      -44.61950000     -32.91420000     -68.48800000
H      -41.17680000     -31.10940000     -70.12830000
H      -42.31550000     -28.88440000     -70.12210000
C      -42.08640000     -33.49610000     -69.24240000
H      -42.87930000     -34.27870000     -69.09790000
H      -41.16680000     -33.55670000     -68.63010000
C      -46.14180000     -30.75700000     -68.25540000
H      -46.27980000     -31.71680000     -67.74350000
H      -46.24320000     -29.88370000     -67.65350000
S      -41.46680000     -33.95870000     -70.99550000
S      -47.33000000     -30.48040000     -69.64480000
C      -42.97820000     -34.03740000     -72.12760000
H      -43.32200000     -33.01800000     -72.48980000
H      -42.66130000     -34.51480000     -73.03600000
C      -47.53380000     -32.09870000     -70.49710000
H      -48.59440000     -32.16790000     -70.65690000
H      -47.31500000     -32.92740000     -69.86270000
C      -46.64510000     -32.35380000     -71.76520000
H      -46.74220000     -31.56520000     -72.48210000
H      -45.59950000     -32.47030000     -71.39050000
C      -44.10040000     -34.87720000     -71.45590000
H      -44.57160000     -34.43590000     -70.58700000
H      -43.54880000     -35.75420000     -71.07150000
C      -45.16620000     -35.50670000     -72.33560000
C      -45.04390000     -36.76010000     -72.85600000
C      -46.43440000     -34.92040000     -72.72650000
H      -44.29000000     -37.52410000     -72.60280000
C      -47.24420000     -35.79580000     -73.38400000
C      -47.13820000     -33.67820000     -72.53400000
C      -48.25060000     -33.54430000     -73.25630000
S      -46.40660000     -37.27410000     -73.80690000
S      -48.67850000     -35.07830000     -74.08210000
H      -48.88180000     -32.68570000     -73.29260000
