40
Properties=species:S:1:pos:R:3 #=T CELL(abcABC):=T 1.889726e+02=T 90.00000=T Traj:=T positionsangstrom=T Step:=T 0=T Bead:=T pbc="F F F"
C      -44.00420000     -33.55510000     -68.95150000
C      -45.06250000     -34.38530000     -69.04440000
C      -46.31910000     -33.89240000     -69.26820000
C      -46.49350000     -32.51190000     -69.51830000
C      -45.40220000     -31.66520000     -69.57040000
C      -44.19410000     -32.19820000     -69.08500000
H      -43.02780000     -33.87530000     -68.64280000
H      -47.11780000     -34.60130000     -69.24700000
H      -45.41210000     -30.61590000     -69.59080000
H      -43.44590000     -31.50690000     -68.82670000
C      -47.86120000     -31.93290000     -69.75430000
H      -47.64370000     -30.96090000     -70.15030000
H      -48.44370000     -31.87940000     -68.88820000
C      -44.89610000     -35.97580000     -68.93260000
H      -43.87080000     -36.19650000     -68.46530000
H      -45.75030000     -36.38660000     -68.45110000
S      -48.98980000     -32.79590000     -70.93760000
S      -44.54210000     -36.92720000     -70.53360000
C      -48.55590000     -32.16960000     -72.58390000
H      -49.41600000     -32.33530000     -73.30720000
H      -48.47600000     -31.05220000     -72.53740000
C      -45.78140000     -36.28110000     -71.86900000
H      -46.46510000     -35.56050000     -71.37470000
H      -46.36910000     -37.20480000     -72.08270000
C      -45.14920000     -35.71750000     -73.17200000
H      -44.42100000     -36.43840000     -73.53640000
H      -45.91760000     -35.44020000     -73.96600000
C      -47.34180000     -32.88370000     -73.22100000
H      -47.49610000     -33.00130000     -74.28370000
H      -47.32270000     -33.91940000     -72.94010000
C      -45.96520000     -32.30770000     -72.85920000
C      -45.72640000     -30.94260000     -72.78670000
C      -44.69660000     -33.04790000     -72.79370000
H      -46.43820000     -30.16210000     -72.93450000
C      -43.59470000     -32.23740000     -72.48710000
C      -44.27760000     -34.45650000     -72.86510000
C      -42.93210000     -34.60320000     -72.69580000
S      -44.10470000     -30.51990000     -72.19700000
S      -42.13300000     -33.14030000     -72.30080000
H      -42.44070000     -35.55490000     -72.47790000
