40
Properties=species:S:1:pos:R:3 #=T CELL(abcABC):=T 1.889726e+02=T 90.00000=T Traj:=T positionsangstrom=T Step:=T 0=T Bead:=T pbc="F F F"
C      -44.18970000     -29.78160000     -69.69930000
C      -44.90600000     -30.73440000     -68.97840000
C      -44.27110000     -31.96770000     -68.81690000
C      -42.94270000     -32.13830000     -69.23360000
C      -42.22460000     -31.08520000     -69.79870000
C      -42.89080000     -29.90050000     -70.10450000
H      -44.68710000     -28.77960000     -69.89280000
H      -44.73940000     -32.77890000     -68.24500000
H      -41.24470000     -31.22840000     -70.19350000
H      -42.44440000     -29.04990000     -70.64940000
C      -42.31690000     -33.53210000     -68.90120000
H      -43.09790000     -34.02010000     -68.35890000
H      -41.48700000     -33.49580000     -68.16750000
C      -46.31300000     -30.45350000     -68.55800000
H      -46.63330000     -31.32850000     -68.04440000
H      -46.41460000     -29.52360000     -68.03730000
S      -41.72850000     -34.57680000     -70.35060000
S      -47.34810000     -30.26040000     -70.08850000
C      -43.28890000     -34.62530000     -71.33900000
H      -43.50700000     -33.59830000     -71.65100000
H      -43.06530000     -35.30690000     -72.12550000
C      -47.41220000     -31.95520000     -70.96840000
H      -48.39330000     -31.94650000     -71.44970000
H      -47.28460000     -32.72180000     -70.17490000
C      -46.33600000     -32.16520000     -72.06570000
H      -46.17420000     -31.30420000     -72.75000000
H      -45.34540000     -32.33500000     -71.62090000
C      -44.54240000     -35.06140000     -70.64800000
H      -44.96130000     -34.25600000     -69.95030000
H      -44.27730000     -35.90390000     -70.03810000
C      -45.51970000     -35.55650000     -71.72160000
C      -45.58680000     -36.91890000     -71.95110000
C      -46.33280000     -34.77760000     -72.64620000
H      -45.15340000     -37.61960000     -71.26520000
C      -46.91410000     -35.60440000     -73.52880000
C      -46.73460000     -33.38960000     -72.85370000
C      -47.58680000     -33.27140000     -73.89830000
S      -46.56630000     -37.34240000     -73.31990000
S      -47.80850000     -34.74290000     -74.82580000
H      -48.10300000     -32.38560000     -74.34990000
