40
Properties=species:S:1:pos:R:3 #=T CELL(abcABC):=T 1.889726e+02=T 90.00000=T Traj:=T positionsangstrom=T Step:=T 0=T Bead:=T pbc="F F F"
C      -44.11970000     -29.66050000     -69.44530000
C      -44.77670000     -30.79880000     -68.95020000
C      -44.02830000     -31.97470000     -68.88640000
C      -42.66320000     -32.08440000     -69.18700000
C      -42.02900000     -30.88250000     -69.63510000
C      -42.71960000     -29.67850000     -69.71430000
H      -44.78860000     -28.82860000     -69.54250000
H      -44.50560000     -32.95260000     -68.64270000
H      -40.93620000     -30.90390000     -69.72810000
H      -42.30360000     -28.77770000     -70.14120000
C      -41.94510000     -33.41590000     -69.02070000
H      -42.48400000     -34.01770000     -68.29160000
H      -40.92960000     -33.26410000     -68.58430000
C      -46.17980000     -30.82010000     -68.55600000
H      -46.56690000     -31.80210000     -68.17000000
H      -46.52760000     -30.07250000     -67.82120000
S      -41.67800000     -34.34520000     -70.57170000
S      -47.17790000     -30.23470000     -70.19270000
C      -43.27930000     -34.31710000     -71.54220000
H      -43.54290000     -33.28440000     -71.75670000
H      -42.93730000     -34.75410000     -72.46270000
C      -47.54410000     -31.89250000     -70.97860000
H      -48.39700000     -31.82990000     -71.68790000
H      -47.82170000     -32.55310000     -70.16080000
C      -46.44230000     -32.41280000     -71.84150000
H      -46.22640000     -31.56550000     -72.45780000
H      -45.49910000     -32.68840000     -71.38080000
C      -44.44070000     -34.99820000     -70.91310000
H      -45.02230000     -34.24200000     -70.35240000
H      -44.10120000     -35.76260000     -70.30520000
C      -45.47050000     -35.58820000     -71.90120000
C      -45.34160000     -36.92130000     -72.18130000
C      -46.43810000     -34.88850000     -72.68440000
H      -44.80130000     -37.73440000     -71.65840000
C      -47.07040000     -35.68310000     -73.58080000
C      -47.02770000     -33.55180000     -72.68910000
C      -48.06400000     -33.44190000     -73.62000000
S      -46.53910000     -37.33530000     -73.47960000
S      -48.36290000     -34.97150000     -74.47970000
H      -48.55830000     -32.59440000     -73.97800000
