40
Properties=species:S:1:pos:R:3 #=T CELL(abcABC):=T 1.889726e+02=T 90.00000=T Traj:=T positionsangstrom=T Step:=T 0=T Bead:=T pbc="F F F"
C      -46.80050000     -30.77870000     -74.18340000
C      -45.55000000     -30.72280000     -73.51320000
C      -44.72070000     -31.87310000     -73.71370000
C      -44.99510000     -32.91160000     -74.55820000
C      -46.34230000     -33.01570000     -74.98530000
C      -47.21750000     -31.94350000     -74.82790000
H      -47.58030000     -29.98710000     -74.05180000
H      -43.76490000     -31.92600000     -73.16340000
H      -46.84600000     -33.92060000     -75.42980000
H      -48.20870000     -31.92230000     -75.19760000
C      -44.03470000     -34.00910000     -74.99610000
H      -42.96140000     -33.81110000     -74.74080000
H      -43.96100000     -33.99090000     -76.08640000
C      -45.09080000     -29.57970000     -72.57810000
H      -44.10650000     -29.85710000     -72.13750000
H      -45.14720000     -28.60730000     -73.12770000
S      -44.42760000     -35.78000000     -74.59040000
S      -46.36840000     -29.34820000     -71.21860000
C      -44.15690000     -35.98330000     -72.75380000
H      -44.16580000     -37.03120000     -72.53070000
H      -43.17210000     -35.65340000     -72.40720000
C      -46.19500000     -30.55730000     -69.93580000
H      -47.05130000     -30.45420000     -69.24840000
H      -45.28520000     -30.29500000     -69.36400000
C      -45.99660000     -32.03560000     -70.36230000
H      -46.92590000     -32.49240000     -70.76890000
H      -45.25620000     -31.92740000     -71.15390000
C      -45.22810000     -35.20400000     -71.88720000
H      -46.20580000     -35.49410000     -72.19160000
H      -45.23090000     -34.15910000     -72.07520000
C      -45.02390000     -35.43660000     -70.45090000
C      -44.51870000     -36.63610000     -69.98810000
C      -45.33850000     -34.50840000     -69.36600000
H      -44.24830000     -37.48830000     -70.53540000
C      -44.98010000     -35.02730000     -68.08950000
C      -45.60300000     -33.09960000     -69.25060000
C      -45.61680000     -32.61180000     -67.98720000
S      -44.42690000     -36.70170000     -68.22020000
S      -45.29750000     -33.86930000     -66.81980000
H      -45.53320000     -31.54970000     -67.75300000
