40
Properties=species:S:1:pos:R:3 #=T CELL(abcABC):=T 1.889726e+02=T 90.00000=T Traj:=T positionsangstrom=T Step:=T 0=T Bead:=T pbc="F F F"
C      -46.55880000     -30.90760000     -74.47830000
C      -45.42250000     -30.92950000     -73.64400000
C      -44.50540000     -31.94670000     -73.82650000
C      -44.69780000     -32.95500000     -74.72010000
C      -45.85360000     -32.88320000     -75.52850000
C      -46.79980000     -31.88750000     -75.38680000
H      -47.26900000     -30.17740000     -74.27750000
H      -43.51510000     -31.86850000     -73.37750000
H      -46.11530000     -33.76720000     -76.24560000
H      -47.66780000     -31.74980000     -76.09220000
C      -43.65410000     -34.05910000     -75.07710000
H      -42.64840000     -33.72610000     -75.02380000
H      -43.82610000     -34.40310000     -76.15040000
C      -45.10060000     -29.74640000     -72.71880000
H      -44.08870000     -29.90770000     -72.25140000
H      -45.01090000     -28.77170000     -73.26320000
S      -43.55010000     -35.68230000     -74.13430000
S      -46.39680000     -29.44700000     -71.45550000
C      -43.75720000     -35.06840000     -72.30940000
H      -43.10000000     -35.69900000     -71.68990000
H      -43.35260000     -34.05060000     -72.27780000
C      -45.83080000     -30.61010000     -70.07910000
H      -46.35700000     -30.37460000     -69.12770000
H      -44.82500000     -30.30780000     -69.81020000
C      -46.01300000     -32.11650000     -70.35950000
H      -47.03120000     -32.19330000     -70.56610000
H      -45.48810000     -32.48340000     -71.25760000
C      -45.23210000     -35.19060000     -71.82480000
H      -45.64850000     -36.01040000     -72.36660000
H      -45.77230000     -34.32360000     -72.25060000
C      -45.33220000     -35.41320000     -70.35570000
C      -45.27480000     -36.71020000     -69.83650000
C      -45.61340000     -34.47370000     -69.30480000
H      -45.07780000     -37.54920000     -70.50020000
C      -45.63250000     -35.11790000     -68.05330000
C      -45.70590000     -33.00760000     -69.13850000
C      -45.62940000     -32.57690000     -67.79810000
S      -45.41060000     -36.80230000     -68.14250000
S      -45.56450000     -33.94630000     -66.66940000
H      -45.55950000     -31.50290000     -67.59810000
