40
Properties=species:S:1:pos:R:3 #=T CELL(abcABC):=T 1.889726e+02=T 90.00000=T Traj:=T positionsangstrom=T Step:=T 0=T Bead:=T pbc="F F F"
C      -47.00220000     -30.82350000     -74.16510000
C      -45.71920000     -30.70630000     -73.53490000
C      -44.83870000     -31.77670000     -73.66390000
C      -45.14410000     -32.91530000     -74.45950000
C      -46.38430000     -32.96330000     -75.07080000
C      -47.27670000     -31.91630000     -74.97610000
H      -47.61040000     -29.91060000     -74.18260000
H      -43.90450000     -31.60270000     -73.12320000
H      -46.56840000     -33.76430000     -75.73490000
H      -48.26940000     -32.01160000     -75.49420000
C      -44.02430000     -33.91150000     -74.77290000
H      -43.24240000     -33.85260000     -74.05470000
H      -43.63380000     -33.75010000     -75.79830000
C      -45.33780000     -29.54630000     -72.65700000
H      -44.40770000     -29.78770000     -72.18650000
H      -45.20790000     -28.60070000     -73.23430000
S      -44.50000000     -35.79270000     -74.61050000
S      -46.46560000     -29.41710000     -71.24890000
C      -44.17490000     -35.92510000     -72.82330000
H      -44.42650000     -36.94830000     -72.60560000
H      -43.09170000     -35.78320000     -72.73210000
C      -45.97420000     -30.73520000     -69.92740000
H      -46.77090000     -30.47760000     -69.16020000
H      -45.03610000     -30.51520000     -69.44990000
C      -46.06060000     -32.13880000     -70.37650000
H      -47.11520000     -32.31710000     -70.62820000
H      -45.45400000     -32.32700000     -71.24180000
C      -44.93020000     -34.95040000     -71.92540000
H      -46.01720000     -34.76360000     -72.21340000
H      -44.45860000     -33.96880000     -72.00040000
C      -44.84360000     -35.34510000     -70.45900000
C      -44.56980000     -36.61190000     -70.02210000
C      -45.09880000     -34.43290000     -69.39330000
H      -44.34210000     -37.44710000     -70.65160000
C      -44.76850000     -34.98940000     -68.15090000
C      -45.62080000     -33.04270000     -69.16300000
C      -45.77740000     -32.72660000     -67.83450000
S      -44.44360000     -36.73580000     -68.26080000
S      -45.06360000     -33.96410000     -66.74880000
H      -45.97870000     -31.72730000     -67.45100000
