40
Properties=species:S:1:pos:R:3 #=T CELL(abcABC):=T 1.889726e+02=T 90.00000=T Traj:=T positionsangstrom=T Step:=T 0=T Bead:=T pbc="F F F"
C      -47.53450000     -33.49660000     -72.46030000
C      -47.40500000     -33.72810000     -71.11090000
C      -46.84340000     -32.80350000     -70.25040000
C      -46.35250000     -31.56590000     -70.73760000
C      -46.44950000     -31.36000000     -72.10020000
C      -46.98740000     -32.32070000     -72.94760000
H      -48.18450000     -34.22610000     -73.10780000
H      -46.69460000     -33.04150000     -69.17350000
H      -46.20650000     -30.31270000     -72.53530000
H      -47.04320000     -32.08590000     -74.03240000
C      -46.06450000     -30.40720000     -69.76160000
H      -47.10960000     -30.11940000     -69.41840000
H      -45.57860000     -29.58220000     -70.37220000
C      -48.09020000     -34.87430000     -70.41090000
H      -47.96600000     -34.77280000     -69.30570000
H      -49.15820000     -34.84820000     -70.47010000
S      -45.12570000     -30.87730000     -68.25410000
S      -47.34180000     -36.54380000     -70.89090000
C      -43.37160000     -31.69690000     -68.60630000
H      -42.72000000     -30.96040000     -69.08150000
H      -42.79330000     -31.93630000     -67.66960000
C      -45.72800000     -36.43760000     -69.85170000
H      -45.53640000     -37.36430000     -69.24030000
H      -46.06930000     -35.68080000     -69.10300000
C      -44.43920000     -36.14610000     -70.55700000
H      -43.61850000     -35.86480000     -69.87730000
H      -44.08230000     -37.06530000     -71.00020000
C      -43.56480000     -32.99060000     -69.42480000
H      -44.53820000     -33.43330000     -69.20160000
H      -42.81060000     -33.67530000     -69.13490000
C      -43.52800000     -32.80600000     -70.93520000
C      -43.19390000     -31.62050000     -71.54320000
C      -43.94130000     -33.84950000     -71.87500000
H      -42.86560000     -30.66640000     -71.10120000
C      -44.05200000     -33.32830000     -73.19080000
C      -44.50480000     -35.21870000     -71.72310000
C      -44.87880000     -35.72200000     -72.95970000
S      -43.44120000     -31.67650000     -73.33490000
S      -44.70800000     -34.56720000     -74.33320000
H      -45.33210000     -36.77570000     -73.08610000
