40
Properties=species:S:1:pos:R:3 #=T CELL(abcABC):=T 1.889726e+02=T 90.00000=T Traj:=T positionsangstrom=T Step:=T 0=T Bead:=T pbc="F F F"
C      -46.48670000     -31.07850000     -74.53350000
C      -45.36370000     -31.02070000     -73.71130000
C      -44.39140000     -31.93600000     -73.98350000
C      -44.47190000     -32.93920000     -74.90370000
C      -45.66080000     -32.98570000     -75.65130000
C      -46.67990000     -32.04970000     -75.48730000
H      -47.19640000     -30.26740000     -74.68610000
H      -43.51000000     -31.86890000     -73.32870000
H      -45.72820000     -33.73520000     -76.50950000
H      -47.57420000     -32.05330000     -76.12120000
C      -43.38740000     -33.88240000     -75.02820000
H      -42.41150000     -33.41910000     -74.78720000
H      -43.35480000     -34.26260000     -76.06000000
C      -45.11770000     -29.89240000     -72.80080000
H      -44.11120000     -30.05450000     -72.44310000
H      -45.10620000     -28.91890000     -73.22490000
S      -43.60700000     -35.39890000     -73.92540000
S      -46.28410000     -29.55830000     -71.40200000
C      -43.88560000     -34.92790000     -72.21940000
H      -43.13210000     -35.46060000     -71.65570000
H      -43.72580000     -33.81180000     -72.25420000
C      -45.83740000     -30.59840000     -70.01100000
H      -46.61270000     -30.69170000     -69.23400000
H      -44.87970000     -30.21800000     -69.67340000
C      -45.67430000     -32.09370000     -70.43790000
H      -46.60160000     -32.34710000     -71.05840000
H      -44.75370000     -32.23110000     -71.01450000
C      -45.33800000     -35.19890000     -71.74460000
H      -45.82380000     -36.05410000     -72.25350000
H      -45.95710000     -34.32100000     -71.95700000
C      -45.37650000     -35.49770000     -70.30650000
C      -45.38340000     -36.76800000     -69.83410000
C      -45.49770000     -34.51880000     -69.23240000
H      -45.44570000     -37.61190000     -70.54760000
C      -45.68180000     -35.09440000     -68.01710000
C      -45.59960000     -33.05990000     -69.21800000
C      -45.92150000     -32.56540000     -67.95520000
S      -45.53500000     -36.87870000     -68.11290000
S      -45.82410000     -33.85110000     -66.71180000
H      -46.21990000     -31.56470000     -67.68460000
