40
Properties=species:S:1:pos:R:3 #=T CELL(abcABC):=T 1.889726e+02=T 90.00000=T Traj:=T positionsangstrom=T Step:=T 0=T Bead:=T pbc="F F F"
C      -43.92160000     -29.89950000     -70.08560000
C      -44.92610000     -30.74110000     -69.43300000
C      -44.50220000     -31.87720000     -68.80000000
C      -43.13500000     -32.26360000     -68.76340000
C      -42.18590000     -31.44400000     -69.35530000
C      -42.57760000     -30.26920000     -69.93160000
H      -44.13440000     -28.91500000     -70.47900000
H      -45.17940000     -32.52970000     -68.14330000
H      -41.11420000     -31.70460000     -69.30850000
H      -41.86960000     -29.65900000     -70.48230000
C      -42.66490000     -33.60770000     -68.18950000
H      -43.38870000     -34.23380000     -67.63450000
H      -41.77870000     -33.48420000     -67.56800000
C      -46.34810000     -30.30330000     -69.24500000
H      -47.01510000     -31.13130000     -68.81630000
H      -46.25790000     -29.42200000     -68.57520000
S      -42.03300000     -34.79320000     -69.45650000
S      -47.25150000     -29.70320000     -70.82490000
C      -43.26000000     -34.68390000     -70.89380000
H      -43.21260000     -33.69740000     -71.27830000
H      -42.93310000     -35.32890000     -71.75420000
C      -47.68320000     -31.31080000     -71.58540000
H      -48.27510000     -31.03210000     -72.47810000
H      -48.37240000     -31.89470000     -70.93640000
C      -46.48000000     -32.22250000     -71.88300000
H      -45.65590000     -31.60870000     -72.29650000
H      -46.11260000     -32.54600000     -70.89040000
C      -44.64360000     -35.24840000     -70.48470000
H      -45.15480000     -34.46820000     -69.92940000
H      -44.51790000     -36.04810000     -69.77810000
C      -45.59340000     -35.63480000     -71.62700000
C      -45.52060000     -36.96980000     -72.01170000
C      -46.34290000     -34.84530000     -72.60160000
H      -45.00890000     -37.66960000     -71.36910000
C      -46.77140000     -35.66420000     -73.68030000
C      -46.81570000     -33.47380000     -72.76640000
C      -47.48190000     -33.31120000     -73.95900000
S      -46.27280000     -37.30240000     -73.58650000
S      -47.66540000     -34.80050000     -74.90200000
H      -47.81080000     -32.34780000     -74.29970000
