40
Properties=species:S:1:pos:R:3 #=T CELL(abcABC):=T 1.889726e+02=T 90.00000=T Traj:=T positionsangstrom=T Step:=T 0=T Bead:=T pbc="F F F"
C      -47.00110000     -30.94880000     -74.17760000
C      -45.78510000     -30.89900000     -73.45130000
C      -44.81010000     -31.80110000     -73.82410000
C      -45.01260000     -32.88470000     -74.70780000
C      -46.25030000     -32.97890000     -75.30810000
C      -47.18420000     -32.02010000     -75.08690000
H      -47.72200000     -30.20140000     -73.85190000
H      -43.82030000     -31.67450000     -73.42260000
H      -46.42840000     -33.83650000     -75.92780000
H      -48.16550000     -32.10060000     -75.64560000
C      -43.96830000     -33.90150000     -74.86410000
H      -43.17480000     -33.55950000     -74.21150000
H      -43.57590000     -33.87860000     -75.89210000
C      -45.50070000     -29.69000000     -72.59500000
H      -44.47520000     -29.41580000     -72.27550000
H      -45.69910000     -28.82440000     -73.26180000
S      -44.65300000     -35.53250000     -74.64430000
S      -46.65840000     -29.53010000     -71.09730000
C      -44.38010000     -36.04260000     -72.86600000
H      -45.06500000     -36.88660000     -72.80050000
H      -43.34210000     -36.33250000     -72.61430000
C      -45.69860000     -30.57790000     -70.04200000
H      -45.98430000     -30.35360000     -69.03820000
H      -44.67830000     -30.30410000     -70.28960000
C      -45.96160000     -32.08050000     -70.20550000
H      -47.04120000     -32.26930000     -70.38670000
H      -45.59760000     -32.42270000     -71.21540000
C      -44.88650000     -34.99640000     -71.86390000
H      -45.93570000     -34.86410000     -72.09130000
H      -44.40480000     -34.02120000     -72.11210000
C      -44.74960000     -35.32220000     -70.40780000
C      -44.43840000     -36.54370000     -69.92330000
C      -45.11560000     -34.44600000     -69.37230000
H      -44.11040000     -37.35740000     -70.59100000
C      -44.92590000     -35.04480000     -68.11350000
C      -45.39700000     -32.99760000     -69.14510000
C      -45.39400000     -32.62930000     -67.81830000
S      -44.42950000     -36.67670000     -68.18660000
S      -45.14850000     -34.02130000     -66.75490000
H      -46.00300000     -31.85050000     -67.49550000
