40
Properties=species:S:1:pos:R:3 #=T CELL(abcABC):=T 1.889726e+02=T 90.00000=T Traj:=T positionsangstrom=T Step:=T 0=T Bead:=T pbc="F F F"
C      -43.92800000     -29.78530000     -69.96520000
C      -44.87730000     -30.60370000     -69.25610000
C      -44.47870000     -31.78680000     -68.67820000
C      -43.13510000     -32.22620000     -68.75790000
C      -42.22370000     -31.46530000     -69.44460000
C      -42.64870000     -30.25740000     -70.02250000
H      -44.22280000     -28.79450000     -70.38300000
H      -45.32500000     -32.44560000     -68.23090000
H      -41.14470000     -31.67120000     -69.57090000
H      -41.96620000     -29.69990000     -70.60210000
C      -42.84020000     -33.56600000     -68.06420000
H      -43.78140000     -33.89370000     -67.65230000
H      -42.02180000     -33.49390000     -67.28630000
C      -46.36270000     -30.19740000     -69.26580000
H      -46.90160000     -30.98650000     -68.75630000
H      -46.57270000     -29.28050000     -68.72820000
S      -42.21940000     -34.74640000     -69.40760000
S      -47.08970000     -29.91540000     -70.92340000
C      -43.41620000     -34.53910000     -70.78100000
H      -43.47380000     -33.47670000     -71.13470000
H      -43.03410000     -35.01350000     -71.74010000
C      -47.57540000     -31.58800000     -71.57680000
H      -47.94300000     -31.33880000     -72.51640000
H      -48.41720000     -32.06700000     -71.00840000
C      -46.35120000     -32.48400000     -71.68220000
H      -45.44430000     -31.98880000     -71.97700000
H      -46.13460000     -33.09830000     -70.80000000
C      -44.78830000     -35.15500000     -70.50280000
H      -45.55940000     -34.50110000     -70.06450000
H      -44.66530000     -35.91330000     -69.68230000
C      -45.44220000     -35.66670000     -71.74800000
C      -45.27290000     -36.94300000     -72.26260000
C      -46.23660000     -34.86080000     -72.69420000
H      -44.69010000     -37.62560000     -71.69430000
C      -46.73880000     -35.62270000     -73.77490000
C      -46.64830000     -33.49590000     -72.78670000
C      -47.43420000     -33.26100000     -73.92720000
S      -46.36560000     -37.29250000     -73.55200000
S      -47.67910000     -34.74710000     -74.92000000
H      -47.75150000     -32.34900000     -74.39570000
