40
Properties=species:S:1:pos:R:3 #=T CELL(abcABC):=T 1.889726e+02=T 90.00000=T Traj:=T positionsangstrom=T Step:=T 0=T Bead:=T pbc="F F F"
C      -47.07810000     -31.05440000     -74.21590000
C      -45.88060000     -30.80320000     -73.53160000
C      -44.82860000     -31.76540000     -73.77320000
C      -45.01670000     -32.85280000     -74.64750000
C      -46.19620000     -32.92830000     -75.40560000
C      -47.29420000     -32.09460000     -75.15450000
H      -47.90920000     -30.37970000     -73.90150000
H      -43.86700000     -31.67590000     -73.22470000
H      -46.21170000     -33.80440000     -76.06580000
H      -48.18180000     -32.05860000     -75.78840000
C      -43.91500000     -33.88210000     -74.78300000
H      -43.06370000     -33.72420000     -74.08360000
H      -43.49070000     -33.90060000     -75.80790000
C      -45.74760000     -29.55330000     -72.75830000
H      -44.70310000     -29.35690000     -72.55590000
H      -46.37160000     -28.84830000     -73.27370000
S      -44.73090000     -35.58790000     -74.66600000
S      -46.57740000     -29.60580000     -71.14250000
C      -44.59780000     -36.02270000     -72.84500000
H      -45.22050000     -36.89800000     -72.73630000
H      -43.58920000     -36.40140000     -72.62860000
C      -45.49410000     -30.64520000     -69.98150000
H      -45.77920000     -30.38430000     -68.97880000
H      -44.40040000     -30.29560000     -70.04410000
C      -45.63480000     -32.13760000     -70.27730000
H      -46.54960000     -32.34460000     -70.75470000
H      -44.86340000     -32.37080000     -71.03040000
C      -44.93450000     -34.87910000     -71.85200000
H      -45.89770000     -34.40470000     -72.02320000
H      -44.16500000     -34.06270000     -72.02920000
C      -44.81690000     -35.25210000     -70.36310000
C      -44.41000000     -36.49100000     -70.00610000
C      -45.04350000     -34.42310000     -69.22270000
H      -44.12590000     -37.38200000     -70.60620000
C      -44.86700000     -35.10670000     -68.02360000
C      -45.40250000     -33.00100000     -69.06430000
C      -45.50200000     -32.60030000     -67.78130000
S      -44.36330000     -36.71910000     -68.23300000
S      -45.17420000     -33.97130000     -66.67850000
H      -45.83950000     -31.65410000     -67.44540000
