40
Properties=species:S:1:pos:R:3 #=T CELL(abcABC):=T 1.889726e+02=T 90.00000=T Traj:=T positionsangstrom=T Step:=T 0=T Bead:=T pbc="F F F"
C      -44.04070000     -33.61290000     -68.86950000
C      -45.33900000     -34.26820000     -69.04310000
C      -46.51750000     -33.44260000     -69.16630000
C      -46.42560000     -32.05500000     -69.19470000
C      -45.19800000     -31.49070000     -69.07980000
C      -44.03950000     -32.24380000     -69.00990000
H      -43.12390000     -34.13900000     -68.55170000
H      -47.49220000     -33.81170000     -69.24640000
H      -45.08210000     -30.42530000     -69.06300000
H      -43.09610000     -31.66310000     -69.01580000
C      -47.68350000     -31.20840000     -69.09910000
H      -47.48060000     -30.09140000     -69.04330000
H      -48.17150000     -31.56280000     -68.18910000
C      -45.39250000     -35.81390000     -68.78200000
H      -44.62060000     -36.01700000     -68.01350000
H      -46.27270000     -36.19080000     -68.24070000
S      -48.90790000     -31.36460000     -70.55870000
S      -45.11680000     -36.72750000     -70.39720000
C      -47.82280000     -31.13490000     -72.03370000
H      -48.36910000     -30.55150000     -72.78050000
H      -47.03360000     -30.43830000     -71.71020000
C      -46.52150000     -36.09550000     -71.51600000
H      -46.80310000     -35.08040000     -71.01510000
H      -47.41090000     -36.80240000     -71.55910000
C      -46.01410000     -35.79240000     -72.91690000
H      -45.97410000     -36.77030000     -73.38630000
H      -46.78110000     -35.19100000     -73.49080000
C      -47.09600000     -32.42160000     -72.56590000
H      -47.64930000     -32.75170000     -73.43230000
H      -47.30630000     -33.28260000     -71.92710000
C      -45.60640000     -32.37150000     -72.77380000
C      -44.94340000     -31.18120000     -72.79030000
C      -44.70060000     -33.49430000     -73.02650000
H      -45.42510000     -30.16290000     -72.62220000
C      -43.39320000     -33.06190000     -73.18300000
C      -44.77220000     -34.93420000     -73.00500000
C      -43.53240000     -35.50650000     -73.13110000
S      -43.21480000     -31.36870000     -73.00930000
S      -42.17770000     -34.32520000     -73.08900000
H      -43.23630000     -36.50800000     -72.96130000
