40
Properties=species:S:1:pos:R:3 #=T CELL(abcABC):=T 1.889726e+02=T 90.00000=T Traj:=T positionsangstrom=T Step:=T 0=T Bead:=T pbc="F F F"
C      -44.15500000     -33.27250000     -69.22850000
C      -45.18990000     -34.13280000     -68.87170000
C      -46.55710000     -33.66400000     -68.94230000
C      -46.79530000     -32.33300000     -69.25280000
C      -45.71130000     -31.50710000     -69.60630000
C      -44.42080000     -31.94810000     -69.50640000
H      -43.11640000     -33.63920000     -69.17390000
H      -47.38840000     -34.36040000     -68.66360000
H      -45.98900000     -30.51010000     -69.88690000
H      -43.63860000     -31.28710000     -69.80730000
C      -48.22380000     -31.73690000     -69.19220000
H      -48.28310000     -30.69580000     -68.84950000
H      -48.85420000     -32.26280000     -68.46650000
C      -44.94550000     -35.62350000     -68.57570000
H      -43.96660000     -35.93570000     -68.17400000
H      -45.75000000     -36.00690000     -67.99370000
S      -49.09550000     -32.04500000     -70.86940000
S      -45.07620000     -36.59790000     -70.16810000
C      -47.88320000     -31.41170000     -72.17880000
H      -48.63110000     -31.00100000     -72.92750000
H      -47.22820000     -30.65150000     -71.85670000
C      -46.40200000     -36.04370000     -71.28490000
H      -46.90440000     -35.14990000     -71.01040000
H      -47.28060000     -36.73930000     -71.38180000
C      -45.81140000     -35.70770000     -72.73530000
H      -45.51170000     -36.68010000     -73.17050000
H      -46.50780000     -35.18070000     -73.32070000
C      -46.98920000     -32.54120000     -72.83920000
H      -47.20680000     -32.81870000     -73.90010000
H      -47.18620000     -33.42810000     -72.13260000
C      -45.48190000     -32.28340000     -72.75760000
C      -44.87810000     -31.03680000     -72.78870000
C      -44.54690000     -33.37720000     -72.82280000
H      -45.40710000     -30.11120000     -72.85860000
C      -43.22520000     -32.88490000     -72.93180000
C      -44.59370000     -34.83510000     -72.75430000
C      -43.32870000     -35.31490000     -72.79730000
S      -43.14420000     -31.15300000     -73.03710000
S      -42.04820000     -34.12700000     -72.96610000
H      -42.98000000     -36.28800000     -72.53260000
