40
Properties=species:S:1:pos:R:3 #=T CELL(abcABC):=T 1.889726e+02=T 90.00000=T Traj:=T positionsangstrom=T Step:=T 0=T Bead:=T pbc="F F F"
C      -46.33230000     -30.86370000     -68.80880000
C      -47.18440000     -30.87720000     -69.90440000
C      -47.89760000     -32.08350000     -70.17700000
C      -47.72110000     -33.19040000     -69.37930000
C      -46.79260000     -33.16340000     -68.30060000
C      -46.11200000     -31.97990000     -67.98880000
H      -45.72410000     -29.97240000     -68.48380000
H      -48.67340000     -32.11630000     -71.01490000
H      -46.67920000     -34.08500000     -67.79010000
H      -45.38690000     -31.87740000     -67.13310000
C      -48.41990000     -34.49960000     -69.75770000
H      -49.45520000     -34.36700000     -69.41100000
H      -47.91190000     -35.31450000     -69.13820000
C      -47.38530000     -29.65140000     -70.80100000
H      -48.43940000     -29.52160000     -70.82770000
H      -46.83910000     -28.80410000     -70.42790000
S      -48.27530000     -34.86290000     -71.56650000
S      -46.73900000     -30.00350000     -72.57620000
C      -46.58910000     -35.55400000     -71.54460000
H      -45.99050000     -35.08650000     -70.79710000
H      -46.60320000     -36.62620000     -71.18170000
C      -45.16630000     -30.95130000     -72.29780000
H      -44.84590000     -30.68890000     -71.26570000
H      -44.41990000     -30.36610000     -72.90860000
C      -45.19850000     -32.47810000     -72.31650000
H      -46.04780000     -32.86480000     -71.63530000
H      -45.53860000     -32.83340000     -73.25190000
C      -45.94100000     -35.47050000     -72.97840000
H      -46.34940000     -34.63050000     -73.54320000
H      -46.18150000     -36.36570000     -73.51040000
C      -44.41430000     -35.44550000     -72.76260000
C      -43.74400000     -36.64700000     -72.90380000
C      -43.61230000     -34.41060000     -72.25500000
H      -44.19980000     -37.51330000     -73.24500000
C      -42.34870000     -34.89800000     -71.89350000
C      -43.89570000     -33.07740000     -71.96160000
C      -42.81820000     -32.41630000     -71.33480000
S      -42.01170000     -36.54360000     -72.38870000
S      -41.42170000     -33.52240000     -71.12740000
H      -42.69060000     -31.39090000     -71.13880000
