40
Properties=species:S:1:pos:R:3 #=T CELL(abcABC):=T 1.889726e+02=T 90.00000=T Traj:=T positionsangstrom=T Step:=T 0=T Bead:=T pbc="F F F"
C      -44.42640000     -33.71340000     -69.04800000
C      -45.65200000     -34.35070000     -68.82230000
C      -46.80150000     -33.59080000     -68.85900000
C      -46.74810000     -32.21490000     -69.03570000
C      -45.49340000     -31.55330000     -69.09610000
C      -44.30840000     -32.35590000     -69.10430000
H      -43.45380000     -34.21630000     -69.16370000
H      -47.83710000     -34.09660000     -68.71290000
H      -45.38650000     -30.43920000     -69.05100000
H      -43.37410000     -31.80870000     -69.08170000
C      -48.05010000     -31.49160000     -69.06220000
H      -47.97220000     -30.37650000     -68.91560000
H      -48.76320000     -32.02270000     -68.40010000
C      -45.67030000     -35.80110000     -68.68200000
H      -44.90710000     -36.24380000     -68.04090000
H      -46.60540000     -36.05080000     -68.21900000
S      -48.88370000     -31.76690000     -70.78850000
S      -45.30890000     -36.72790000     -70.33070000
C      -47.56770000     -31.28740000     -71.99900000
H      -47.89770000     -30.53650000     -72.68490000
H      -46.75240000     -30.80100000     -71.42210000
C      -46.45010000     -35.90350000     -71.45510000
H      -46.67370000     -35.03290000     -70.94900000
H      -47.33520000     -36.55110000     -71.59790000
C      -45.84510000     -35.62420000     -72.85740000
H      -45.69330000     -36.56810000     -73.32230000
H      -46.52520000     -35.13750000     -73.50050000
C      -46.93260000     -32.43320000     -72.78920000
H      -47.49250000     -32.48030000     -73.71390000
H      -47.07130000     -33.39690000     -72.22660000
C      -45.40110000     -32.27100000     -73.05760000
C      -44.68540000     -31.07300000     -73.24600000
C      -44.47850000     -33.34980000     -72.86630000
H      -45.14430000     -30.09790000     -73.39240000
C      -43.17180000     -32.91660000     -72.94040000
C      -44.56590000     -34.74970000     -72.85230000
C      -43.30390000     -35.33900000     -72.80630000
S      -42.98940000     -31.18170000     -73.29590000
S      -42.02420000     -34.12540000     -72.83700000
H      -43.03890000     -36.39460000     -72.79400000
