40
Properties=species:S:1:pos:R:3 #=T CELL(abcABC):=T 1.889726e+02=T 90.00000=T Traj:=T positionsangstrom=T Step:=T 0=T Bead:=T pbc="F F F"
C      -44.28220000     -33.54260000     -69.12010000
C      -45.39160000     -34.28560000     -68.78770000
C      -46.62570000     -33.65260000     -68.65580000
C      -46.80830000     -32.29710000     -68.98710000
C      -45.68700000     -31.53840000     -69.23750000
C      -44.41160000     -32.13230000     -69.30780000
H      -43.27880000     -33.92110000     -69.15860000
H      -47.43280000     -34.24250000     -68.35690000
H      -45.86050000     -30.49470000     -69.40160000
H      -43.54260000     -31.50700000     -69.51890000
C      -48.18220000     -31.65790000     -69.21300000
H      -48.11050000     -30.56370000     -68.96920000
H      -48.91640000     -32.08600000     -68.49580000
C      -45.33320000     -35.80370000     -68.59780000
H      -44.42420000     -35.93210000     -68.02560000
H      -46.18850000     -36.22820000     -68.07340000
S      -48.83520000     -31.99590000     -70.86050000
S      -45.17270000     -36.61420000     -70.19910000
C      -47.67150000     -31.37990000     -72.06390000
H      -48.02480000     -30.51920000     -72.62890000
H      -46.91720000     -30.95920000     -71.36420000
C      -46.44100000     -35.82170000     -71.37880000
H      -46.71350000     -34.78970000     -71.03770000
H      -47.38590000     -36.33330000     -71.47210000
C      -45.81740000     -35.70780000     -72.78810000
H      -45.59220000     -36.66370000     -73.14910000
H      -46.56120000     -35.36830000     -73.47620000
C      -46.99690000     -32.35890000     -73.01550000
H      -47.54900000     -32.33220000     -73.99580000
H      -47.17340000     -33.38790000     -72.82390000
C      -45.47000000     -32.23710000     -73.04580000
C      -44.89570000     -30.99850000     -73.18160000
C      -44.51350000     -33.34880000     -72.87250000
H      -45.33360000     -29.98540000     -73.23780000
C      -43.22120000     -32.87940000     -72.92690000
C      -44.55040000     -34.78920000     -72.85840000
C      -43.31990000     -35.33580000     -72.94990000
S      -43.14630000     -31.13730000     -73.14070000
S      -42.02100000     -34.16850000     -72.86550000
H      -43.10810000     -36.31230000     -73.05680000
