40
Properties=species:S:1:pos:R:3 #=T CELL(abcABC):=T 1.889726e+02=T 90.00000=T Traj:=T positionsangstrom=T Step:=T 0=T Bead:=T pbc="F F F"
C      -44.13320000     -33.22080000     -69.39890000
C      -45.15960000     -34.10290000     -69.03480000
C      -46.49110000     -33.51780000     -68.99100000
C      -46.81090000     -32.19020000     -69.17440000
C      -45.76900000     -31.36950000     -69.56280000
C      -44.44350000     -31.86920000     -69.62140000
H      -43.04180000     -33.49580000     -69.51240000
H      -47.33300000     -34.23920000     -68.72800000
H      -45.82710000     -30.26540000     -69.61530000
H      -43.67170000     -31.13790000     -69.87790000
C      -48.24250000     -31.71330000     -69.24080000
H      -48.26640000     -30.63270000     -69.04340000
H      -48.82790000     -32.26270000     -68.48630000
C      -45.03830000     -35.54870000     -68.64450000
H      -44.14140000     -35.89150000     -68.13390000
H      -45.95310000     -35.79800000     -68.01370000
S      -49.16740000     -32.03200000     -70.88540000
S      -44.86740000     -36.73620000     -70.17620000
C      -47.83040000     -31.50450000     -72.08810000
H      -48.34670000     -30.86200000     -72.88250000
H      -47.17750000     -30.77710000     -71.63040000
C      -46.23540000     -35.95400000     -71.22970000
H      -46.37290000     -35.01850000     -70.68970000
H      -47.14530000     -36.53600000     -71.26790000
C      -45.69410000     -35.83810000     -72.71250000
H      -45.39280000     -36.81130000     -73.16660000
H      -46.51990000     -35.45690000     -73.32500000
C      -47.05940000     -32.66910000     -72.76370000
H      -47.54430000     -33.06130000     -73.69380000
H      -47.06870000     -33.64400000     -72.21650000
C      -45.55860000     -32.42920000     -72.87090000
C      -45.03490000     -31.16220000     -73.00830000
C      -44.56650000     -33.44460000     -72.79940000
H      -45.69500000     -30.27700000     -73.01220000
C      -43.29230000     -32.86410000     -72.78330000
C      -44.56140000     -34.88500000     -72.81850000
C      -43.29860000     -35.36830000     -72.94850000
S      -43.28690000     -31.09050000     -72.86110000
S      -42.02790000     -34.06950000     -72.88160000
H      -43.00140000     -36.45090000     -72.88760000
