40
Properties=species:S:1:pos:R:3 #=T CELL(abcABC):=T 1.889726e+02=T 90.00000=T Traj:=T positionsangstrom=T Step:=T 0=T Bead:=T pbc="F F F"
C      -44.22880000     -33.19460000     -69.33220000
C      -45.33730000     -34.01290000     -69.01640000
C      -46.62300000     -33.44030000     -68.99170000
C      -46.88040000     -32.09920000     -69.33960000
C      -45.76220000     -31.30970000     -69.68630000
C      -44.52380000     -31.86220000     -69.70290000
H      -43.19880000     -33.49760000     -69.33290000
H      -47.36950000     -34.09730000     -68.67940000
H      -45.92360000     -30.26190000     -70.00550000
H      -43.66000000     -31.24120000     -69.82440000
C      -48.29220000     -31.54820000     -69.30970000
H      -48.31650000     -30.44750000     -69.19750000
H      -48.87390000     -31.91510000     -68.43950000
C      -45.06300000     -35.42710000     -68.62640000
H      -44.24980000     -35.53560000     -67.88050000
H      -45.90710000     -36.01430000     -68.35330000
S      -49.22330000     -32.09640000     -70.79450000
S      -44.50670000     -36.56320000     -70.02330000
C      -48.12400000     -31.75380000     -72.24300000
H      -48.85780000     -31.56070000     -73.04650000
H      -47.49710000     -30.87970000     -71.91740000
C      -45.88050000     -36.33100000     -71.22890000
H      -46.60000000     -35.57740000     -70.93710000
H      -46.44460000     -37.28250000     -71.25130000
C      -45.52540000     -35.99700000     -72.66000000
H      -45.14770000     -36.87870000     -73.14150000
H      -46.41260000     -35.66640000     -73.20280000
C      -47.14590000     -32.85890000     -72.52510000
H      -47.45610000     -33.31340000     -73.54410000
H      -47.17880000     -33.72520000     -71.79730000
C      -45.67350000     -32.51140000     -72.82540000
C      -45.14990000     -31.22880000     -73.13190000
C      -44.56740000     -33.49460000     -72.77690000
H      -45.76050000     -30.32490000     -73.24670000
C      -43.38040000     -32.82710000     -72.77160000
C      -44.44790000     -34.88790000     -72.76740000
C      -43.13410000     -35.25140000     -72.78990000
S      -43.37450000     -31.14670000     -73.21690000
S      -42.04170000     -33.91680000     -72.74770000
H      -42.74440000     -36.34140000     -72.67930000
