40
Properties=species:S:1:pos:R:3 #=T CELL(abcABC):=T 1.889726e+02=T 90.00000=T Traj:=T positionsangstrom=T Step:=T 0=T Bead:=T pbc="F F F"
C      -44.22600000     -33.41040000     -69.11300000
C      -45.35470000     -34.23660000     -68.86220000
C      -46.59400000     -33.64460000     -68.93660000
C      -46.83350000     -32.22180000     -69.17940000
C      -45.66750000     -31.47560000     -69.44360000
C      -44.40500000     -32.04580000     -69.34080000
H      -43.26530000     -33.83090000     -69.06880000
H      -47.46690000     -34.16620000     -68.75020000
H      -45.79100000     -30.41420000     -69.65860000
H      -43.55700000     -31.42480000     -69.46250000
C      -48.22650000     -31.80370000     -69.21570000
H      -48.33050000     -30.73180000     -69.11480000
H      -48.81450000     -32.35820000     -68.51420000
C      -45.09110000     -35.67450000     -68.60530000
H      -44.14870000     -35.71130000     -68.01110000
H      -45.80940000     -36.13990000     -67.89950000
S      -49.01830000     -32.13200000     -70.88990000
S      -45.05040000     -36.68160000     -70.17440000
C      -47.73290000     -31.34480000     -72.01850000
H      -48.32580000     -30.79250000     -72.73320000
H      -47.10470000     -30.59190000     -71.47430000
C      -46.26650000     -35.76920000     -71.26430000
H      -46.41550000     -34.78240000     -70.80790000
H      -47.10320000     -36.43960000     -71.18400000
C      -45.86060000     -35.58440000     -72.68150000
H      -45.65930000     -36.57380000     -73.15840000
H      -46.81380000     -35.17990000     -73.22440000
C      -46.99560000     -32.49330000     -72.77540000
H      -47.50130000     -32.59610000     -73.72240000
H      -47.11050000     -33.36290000     -72.14180000
C      -45.50870000     -32.19420000     -72.96080000
C      -44.90530000     -30.94510000     -73.07500000
C      -44.57110000     -33.33810000     -72.90640000
H      -45.20110000     -29.89920000     -72.90060000
C      -43.25040000     -32.90460000     -73.02970000
C      -44.60840000     -34.77930000     -72.78560000
C      -43.37320000     -35.34170000     -72.76210000
S      -43.12870000     -31.16820000     -73.08300000
S      -42.05110000     -34.15320000     -72.97880000
H      -43.13080000     -36.33170000     -72.88520000
