40
Properties=species:S:1:pos:R:3 #=T CELL(abcABC):=T 1.889726e+02=T 90.00000=T Traj:=T positionsangstrom=T Step:=T 0=T Bead:=T pbc="F F F"
C      -44.19620000     -33.34320000     -69.30330000
C      -45.37220000     -34.12650000     -68.96490000
C      -46.66510000     -33.52670000     -68.98340000
C      -46.83520000     -32.18820000     -69.36090000
C      -45.69490000     -31.44700000     -69.61170000
C      -44.38850000     -31.98260000     -69.53010000
H      -43.21280000     -33.78300000     -69.36860000
H      -47.50300000     -34.15580000     -68.63670000
H      -45.69720000     -30.32690000     -69.70510000
H      -43.53600000     -31.45520000     -69.85780000
C      -48.23230000     -31.54180000     -69.44600000
H      -48.05750000     -30.49690000     -69.53580000
H      -48.78720000     -31.71310000     -68.52910000
C      -45.19600000     -35.48390000     -68.45890000
H      -44.50630000     -35.50350000     -67.58610000
H      -46.12620000     -36.02130000     -68.14650000
S      -49.23610000     -32.18450000     -70.87730000
S      -44.62270000     -36.52740000     -69.91740000
C      -48.03660000     -31.85210000     -72.23530000
H      -48.61340000     -31.46650000     -73.07650000
H      -47.46590000     -31.00920000     -72.00580000
C      -45.98860000     -36.22970000     -71.11080000
H      -46.50730000     -35.40830000     -70.67190000
H      -46.66690000     -37.12690000     -71.24630000
C      -45.35620000     -35.84290000     -72.42060000
H      -44.98230000     -36.81640000     -72.95820000
H      -46.24780000     -35.60540000     -73.02480000
C      -47.09400000     -33.02110000     -72.52400000
H      -47.36790000     -33.53700000     -73.40810000
H      -47.33370000     -33.79060000     -71.78460000
C      -45.70110000     -32.61500000     -72.83420000
C      -45.31600000     -31.28990000     -73.15930000
C      -44.51580000     -33.47150000     -72.81800000
H      -45.98390000     -30.43880000     -73.19460000
C      -43.34310000     -32.71990000     -73.04680000
C      -44.25040000     -34.83300000     -72.54920000
C      -42.93900000     -35.18090000     -72.64620000
S      -43.56810000     -31.00020000     -73.31200000
S      -41.96540000     -33.75510000     -72.99210000
H      -42.54800000     -36.18400000     -72.27360000
