40
Properties=species:S:1:pos:R:3 #=T CELL(abcABC):=T 1.889726e+02=T 90.00000=T Traj:=T positionsangstrom=T Step:=T 0=T Bead:=T pbc="F F F"
C      -44.25890000     -33.21900000     -68.62000000
C      -45.36250000     -34.07740000     -68.47510000
C      -46.62220000     -33.49240000     -68.78410000
C      -46.83520000     -32.24320000     -69.33210000
C      -45.69790000     -31.48000000     -69.57860000
C      -44.40510000     -31.96740000     -69.24320000
H      -43.29710000     -33.54060000     -68.24380000
H      -47.49990000     -34.15340000     -68.55260000
H      -45.71650000     -30.55320000     -70.19180000
H      -43.58500000     -31.34370000     -69.44990000
C      -48.17890000     -31.64090000     -69.54810000
H      -48.14470000     -30.54810000     -69.82370000
H      -48.79070000     -31.65910000     -68.59450000
C      -45.26260000     -35.58290000     -68.08990000
H      -44.65510000     -35.61860000     -67.17690000
H      -46.26940000     -36.04400000     -67.87550000
S      -49.10400000     -32.55100000     -70.79380000
S      -44.62830000     -36.53080000     -69.57850000
C      -48.26400000     -32.18730000     -72.33620000
H      -49.07170000     -31.97580000     -73.14880000
H      -47.81740000     -31.13210000     -72.23930000
C      -45.72260000     -35.89690000     -70.94240000
H      -46.08540000     -34.94850000     -70.51480000
H      -46.55730000     -36.57890000     -71.05130000
C      -44.95000000     -35.85600000     -72.27560000
H      -44.46190000     -36.83600000     -72.50030000
H      -45.69260000     -35.83500000     -73.05170000
C      -47.17120000     -33.17790000     -72.81040000
H      -47.48750000     -33.52560000     -73.82020000
H      -47.06330000     -34.01600000     -72.07370000
C      -45.79650000     -32.68490000     -73.09990000
C      -45.57690000     -31.43010000     -73.52460000
C      -44.53830000     -33.43220000     -72.98610000
H      -46.22880000     -30.57280000     -73.62010000
C      -43.41020000     -32.62570000     -73.32550000
C      -44.07570000     -34.72980000     -72.64360000
C      -42.69540000     -34.83450000     -72.61090000
S      -43.88840000     -31.02000000     -73.78850000
S      -41.89800000     -33.42500000     -73.25450000
H      -42.23600000     -35.69990000     -72.27330000
