40
Properties=species:S:1:pos:R:3 #=T CELL(abcABC):=T 1.889726e+02=T 90.00000=T Traj:=T positionsangstrom=T Step:=T 0=T Bead:=T pbc="F F F"
C      -43.11870000     -32.68910000     -72.55650000
C      -43.30990000     -34.07740000     -72.78410000
C      -44.58110000     -34.45700000     -73.32100000
C      -45.54560000     -33.59020000     -73.77980000
C      -45.29010000     -32.21370000     -73.56980000
C      -44.08580000     -31.80120000     -72.98640000
H      -42.20830000     -32.34750000     -72.06300000
H      -44.64520000     -35.52570000     -73.52280000
H      -46.05900000     -31.45600000     -73.94950000
H      -43.93200000     -30.74320000     -72.86380000
C      -46.73260000     -34.13170000     -74.54780000
H      -46.79510000     -35.19880000     -74.25790000
H      -46.60150000     -34.08210000     -75.64490000
C      -42.31820000     -35.05900000     -72.46040000
H      -42.29580000     -35.99580000     -73.06770000
H      -41.38790000     -34.58170000     -72.57500000
S      -48.27460000     -33.29060000     -73.92930000
S      -42.47160000     -35.54090000     -70.59000000
C      -48.66310000     -34.28090000     -72.38570000
H      -49.51240000     -33.78800000     -71.81430000
H      -48.93380000     -35.24930000     -72.67130000
C      -44.20880000     -36.12630000     -70.53790000
H      -44.22820000     -37.20070000     -70.44740000
H      -44.61130000     -35.83000000     -71.53750000
C      -44.97320000     -35.54660000     -69.41220000
H      -46.04040000     -35.88890000     -69.46020000
H      -44.65960000     -35.95960000     -68.48840000
C      -47.48260000     -34.35590000     -71.42630000
H      -46.65830000     -34.91560000     -71.91340000
H      -47.68060000     -35.04560000     -70.58640000
C      -46.93620000     -33.08360000     -70.79660000
C      -47.55880000     -31.87000000     -70.87240000
C      -45.74240000     -33.09070000     -69.86270000
H      -48.39890000     -31.64390000     -71.42590000
C      -45.45000000     -31.77570000     -69.46730000
C      -44.82220000     -34.03950000     -69.28540000
C      -43.93370000     -33.46670000     -68.43800000
S      -46.59810000     -30.65450000     -70.04890000
S      -44.09540000     -31.66180000     -68.37930000
H      -43.40880000     -34.07390000     -67.74220000
