40
Properties=species:S:1:pos:R:3 #=T CELL(abcABC):=T 1.889726e+02=T 90.00000=T Traj:=T positionsangstrom=T Step:=T 0=T Bead:=T pbc="F F F"
C      -43.15050000     -32.63390000     -72.29330000
C      -43.14840000     -33.91490000     -72.84270000
C      -44.23390000     -34.37950000     -73.59290000
C      -45.25820000     -33.40370000     -73.89200000
C      -45.19930000     -32.07900000     -73.38200000
C      -44.13100000     -31.65420000     -72.57520000
H      -42.31860000     -32.39780000     -71.65240000
H      -44.26020000     -35.35420000     -74.13800000
H      -45.97980000     -31.40000000     -73.69380000
H      -44.02260000     -30.64070000     -72.23120000
C      -46.32160000     -33.81530000     -74.77970000
H      -46.32340000     -34.90600000     -74.77200000
H      -46.27200000     -33.48910000     -75.77510000
C      -42.08280000     -34.84850000     -72.24530000
H      -41.94700000     -35.81910000     -72.83350000
H      -41.05010000     -34.37890000     -72.26340000
S      -47.89200000     -33.26570000     -74.04920000
S      -42.37850000     -35.22900000     -70.43720000
C      -48.30160000     -34.55830000     -72.73590000
H      -49.37510000     -34.59250000     -72.56230000
H      -48.14600000     -35.52950000     -73.20400000
C      -44.05810000     -36.00230000     -70.54750000
H      -43.94050000     -37.02530000     -70.86850000
H      -44.48120000     -35.57730000     -71.43030000
C      -44.96820000     -35.65720000     -69.38900000
H      -45.86950000     -36.22040000     -69.50010000
H      -44.62420000     -36.20180000     -68.55060000
C      -47.54610000     -34.67690000     -71.34650000
H      -46.73320000     -35.33770000     -71.52340000
H      -48.16760000     -35.15510000     -70.62110000
C      -47.17150000     -33.37000000     -70.69180000
C      -47.84680000     -32.21700000     -70.83560000
C      -45.99700000     -33.24260000     -69.84330000
H      -48.78990000     -32.03680000     -71.36890000
C      -45.74680000     -31.94360000     -69.49380000
C      -45.06570000     -34.12200000     -69.20650000
C      -44.10510000     -33.39910000     -68.49580000
S      -47.03890000     -30.91260000     -70.02480000
S      -44.36260000     -31.62870000     -68.52460000
H      -43.37390000     -33.89130000     -67.82800000
