40
Properties=species:S:1:pos:R:3 #=T CELL(abcABC):=T 1.889726e+02=T 90.00000=T Traj:=T positionsangstrom=T Step:=T 0=T Bead:=T pbc="F F F"
C      -46.10780000     -31.33970000     -68.80170000
C      -47.08800000     -31.03520000     -69.76940000
C      -48.01970000     -32.03390000     -70.18470000
C      -47.86880000     -33.30570000     -69.67040000
C      -46.96150000     -33.52600000     -68.59330000
C      -46.02880000     -32.58650000     -68.26460000
H      -45.47710000     -30.63930000     -68.33280000
H      -48.73180000     -31.82870000     -70.92700000
H      -46.81080000     -34.52500000     -68.13380000
H      -45.33540000     -32.78640000     -67.53560000
C      -48.86530000     -34.38380000     -70.05470000
H      -49.89930000     -33.96970000     -70.05080000
H      -48.82810000     -35.26180000     -69.34920000
C      -47.05020000     -29.66010000     -70.42000000
H      -48.04380000     -29.22220000     -70.56450000
H      -46.34660000     -29.00320000     -69.92810000
S      -48.46400000     -35.05250000     -71.73560000
S      -46.60620000     -29.87400000     -72.19340000
C      -46.63470000     -35.25320000     -71.65040000
H      -46.21350000     -34.44460000     -71.10160000
H      -46.40250000     -36.17680000     -71.03870000
C      -45.04060000     -30.75720000     -72.10240000
H      -44.88170000     -30.77970000     -71.03580000
H      -44.33340000     -30.27020000     -72.72520000
C      -45.03050000     -32.24800000     -72.52640000
H      -45.83810000     -32.78160000     -72.18110000
H      -45.16490000     -32.21610000     -73.66690000
C      -45.99790000     -35.27780000     -72.97040000
H      -46.23230000     -34.39710000     -73.57520000
H      -46.35240000     -36.12850000     -73.68020000
C      -44.47470000     -35.42250000     -72.64710000
C      -43.86440000     -36.65000000     -72.59050000
C      -43.61670000     -34.30110000     -72.26800000
H      -44.35720000     -37.59430000     -72.92180000
C      -42.33700000     -34.75060000     -71.92140000
C      -43.76430000     -32.92320000     -72.11440000
C      -42.59850000     -32.26820000     -71.67010000
S      -42.15210000     -36.52980000     -72.01610000
S      -41.32020000     -33.49150000     -71.34260000
H      -42.37030000     -31.13490000     -71.58710000
