40
Properties=species:S:1:pos:R:3 #=T CELL(abcABC):=T 1.889726e+02=T 90.00000=T Traj:=T positionsangstrom=T Step:=T 0=T Bead:=T pbc="F F F"
C      -42.92930000     -32.46100000     -72.58120000
C      -43.09640000     -33.87270000     -72.72910000
C      -44.28880000     -34.35770000     -73.27360000
C      -45.28190000     -33.42880000     -73.67040000
C      -45.15730000     -32.03620000     -73.45300000
C      -43.93510000     -31.56540000     -72.85730000
H      -41.90290000     -32.05360000     -72.39970000
H      -44.43530000     -35.38220000     -73.53710000
H      -45.95360000     -31.37130000     -73.82880000
H      -43.89880000     -30.52290000     -72.75850000
C      -46.52410000     -33.88910000     -74.43950000
H      -46.57450000     -34.93900000     -74.50030000
H      -46.45080000     -33.48180000     -75.46280000
C      -42.09610000     -34.87190000     -72.26270000
H      -42.14650000     -35.83690000     -72.81410000
H      -41.06500000     -34.47980000     -72.42150000
S      -48.20000000     -33.40360000     -73.88380000
S      -42.16040000     -35.52120000     -70.52460000
C      -48.62930000     -34.54670000     -72.54630000
H      -49.53580000     -34.26610000     -72.02110000
H      -48.75660000     -35.59010000     -72.90950000
C      -43.97780000     -36.06420000     -70.50220000
H      -44.02780000     -37.13420000     -70.59160000
H      -44.40950000     -35.63930000     -71.43230000
C      -44.78200000     -35.58040000     -69.29850000
H      -45.76260000     -35.96330000     -69.51620000
H      -44.26520000     -35.89890000     -68.39570000
C      -47.60580000     -34.68720000     -71.40230000
H      -46.70620000     -35.25760000     -71.71460000
H      -48.14540000     -35.30350000     -70.64100000
C      -47.13100000     -33.40430000     -70.77920000
C      -47.83120000     -32.23070000     -70.96980000
C      -45.95070000     -33.20810000     -69.91700000
H      -48.54070000     -32.02930000     -71.81350000
C      -45.86510000     -31.86790000     -69.47760000
C      -44.96260000     -34.03850000     -69.22730000
C      -43.99720000     -33.23590000     -68.55000000
S      -47.05650000     -30.85630000     -70.23090000
S      -44.36600000     -31.50770000     -68.48650000
H      -43.03710000     -33.56700000     -68.20160000
