40
Properties=species:S:1:pos:R:3 #=T CELL(abcABC):=T 1.889726e+02=T 90.00000=T Traj:=T positionsangstrom=T Step:=T 0=T Bead:=T pbc="F F F"
C      -43.72360000     -32.62000000     -69.58280000
C      -44.44380000     -33.58700000     -68.79060000
C      -45.81470000     -33.34140000     -68.54030000
C      -46.44950000     -32.16070000     -69.01400000
C      -45.71040000     -31.21610000     -69.70880000
C      -44.36520000     -31.49720000     -70.12010000
H      -42.66450000     -32.88630000     -69.89660000
H      -46.35800000     -34.07000000     -67.93540000
H      -46.32760000     -30.35980000     -69.93440000
H      -43.73090000     -30.83150000     -70.72720000
C      -47.90430000     -31.99720000     -68.59640000
H      -48.29560000     -31.04430000     -68.81850000
H      -48.00000000     -32.29220000     -67.56510000
C      -43.79200000     -34.86930000     -68.27860000
H      -42.79260000     -34.72490000     -67.76740000
H      -44.39110000     -35.53810000     -67.64840000
S      -48.94580000     -33.17800000     -69.70120000
S      -43.22140000     -35.77760000     -69.85060000
C      -48.39280000     -32.61040000     -71.33070000
H      -49.32830000     -32.33800000     -71.93530000
H      -47.69290000     -31.73550000     -71.31140000
C      -44.85920000     -36.31500000     -70.55920000
H      -45.63760000     -35.76060000     -70.01850000
H      -44.96420000     -37.40420000     -70.34140000
C      -44.89470000     -36.04640000     -72.07780000
H      -44.40410000     -36.82230000     -72.71760000
H      -46.03070000     -36.14920000     -72.36500000
C      -47.54560000     -33.70360000     -72.10220000
H      -48.30150000     -34.35680000     -72.54320000
H      -47.12820000     -34.34440000     -71.38500000
C      -46.50500000     -33.02190000     -72.96310000
C      -46.69340000     -31.86460000     -73.66210000
C      -45.16680000     -33.55720000     -72.98710000
H      -47.60680000     -31.25480000     -73.83540000
C      -44.31430000     -32.72360000     -73.81990000
C      -44.38590000     -34.73300000     -72.59130000
C      -43.05740000     -34.65350000     -72.96250000
S      -45.14760000     -31.32240000     -74.31860000
S      -42.65280000     -33.17560000     -73.88980000
H      -42.32600000     -35.47740000     -72.90290000
