40
Properties=species:S:1:pos:R:3 #=T CELL(abcABC):=T 1.889726e+02=T 90.00000=T Traj:=T positionsangstrom=T Step:=T 0=T Bead:=T pbc="F F F"
C      -46.05620000     -31.57630000     -68.88240000
C      -47.04590000     -31.12920000     -69.75700000
C      -48.06730000     -32.00970000     -70.11730000
C      -48.01230000     -33.31500000     -69.67810000
C      -47.02460000     -33.74820000     -68.73920000
C      -46.06840000     -32.87360000     -68.37690000
H      -45.22020000     -30.99340000     -68.59610000
H      -48.82010000     -31.63350000     -70.79090000
H      -47.03330000     -34.67990000     -68.24570000
H      -45.29830000     -33.19410000     -67.73600000
C      -49.05310000     -34.24650000     -70.21110000
H      -49.96660000     -33.74020000     -70.37970000
H      -49.15040000     -35.07370000     -69.48660000
C      -47.08540000     -29.73040000     -70.36320000
H      -48.09620000     -29.31690000     -70.35730000
H      -46.45050000     -29.07700000     -69.69580000
S      -48.56310000     -35.08930000     -71.79890000
S      -46.50350000     -29.66040000     -72.15450000
C      -46.81650000     -35.45620000     -71.57630000
H      -46.38110000     -34.76510000     -70.82950000
H      -46.59040000     -36.50660000     -71.17500000
C      -44.81660000     -30.53050000     -71.97450000
H      -44.48710000     -30.26520000     -70.92020000
H      -43.97560000     -30.13070000     -72.54550000
C      -44.95010000     -32.02060000     -72.25530000
H      -45.79170000     -32.50980000     -71.64540000
H      -45.26840000     -32.27560000     -73.26900000
C      -46.01020000     -35.38000000     -72.84040000
H      -46.20550000     -34.43290000     -73.34520000
H      -46.30480000     -36.12320000     -73.53120000
C      -44.53810000     -35.46070000     -72.54560000
C      -43.87340000     -36.61960000     -72.45260000
C      -43.68040000     -34.25960000     -72.20830000
H      -44.34280000     -37.58850000     -72.76180000
C      -42.36980000     -34.71910000     -71.99340000
C      -43.67340000     -32.78490000     -72.06100000
C      -42.42860000     -32.28410000     -71.75790000
S      -42.18590000     -36.51420000     -71.95520000
S      -41.20820000     -33.51590000     -71.58260000
H      -42.21360000     -31.18080000     -71.67000000
