40
Properties=species:S:1:pos:R:3 #=T CELL(abcABC):=T 1.889726e+02=T 90.00000=T Traj:=T positionsangstrom=T Step:=T 0=T Bead:=T pbc="F F F"
C      -43.97280000     -32.22900000     -69.56840000
C      -44.41220000     -33.45500000     -69.05030000
C      -45.50610000     -33.55720000     -68.25120000
C      -46.44120000     -32.47750000     -68.30240000
C      -46.08970000     -31.26250000     -68.87600000
C      -44.79460000     -31.06190000     -69.36970000
H      -43.01660000     -32.08380000     -70.08500000
H      -45.73880000     -34.49400000     -67.72330000
H      -46.74980000     -30.47280000     -68.76250000
H      -44.40780000     -30.14830000     -69.70960000
C      -47.85400000     -32.48640000     -67.77820000
H      -48.15200000     -31.47700000     -67.46200000
H      -47.92650000     -33.11340000     -66.81390000
C      -43.49570000     -34.71210000     -69.16490000
H      -42.53530000     -34.59510000     -68.71930000
H      -43.83860000     -35.62050000     -68.61410000
S      -49.00150000     -33.20590000     -69.10290000
S      -43.06400000     -35.13960000     -70.92070000
C      -48.19780000     -32.69050000     -70.71780000
H      -49.02960000     -32.58520000     -71.42520000
H      -47.68670000     -31.78520000     -70.54800000
C      -44.51380000     -36.24980000     -71.30650000
H      -45.24270000     -36.04520000     -70.52080000
H      -44.11560000     -37.21570000     -71.02710000
C      -45.12780000     -36.20200000     -72.66900000
H      -44.87590000     -37.17390000     -73.17430000
H      -46.20210000     -36.10350000     -72.52890000
C      -47.21350000     -33.76780000     -71.29520000
H      -47.83370000     -34.45340000     -71.86950000
H      -46.62270000     -34.26800000     -70.50300000
C      -46.18240000     -33.06380000     -72.29880000
C      -46.25420000     -31.71820000     -72.60790000
C      -45.22070000     -33.76530000     -73.18170000
H      -46.80360000     -30.96650000     -72.03560000
C      -44.47930000     -32.84300000     -73.92430000
C      -44.61750000     -35.05610000     -73.47070000
C      -43.54390000     -35.08450000     -74.30490000
S      -44.87490000     -31.19650000     -73.57210000
S      -43.13500000     -33.43830000     -74.85460000
H      -42.97720000     -35.96970000     -74.64200000
