40
Properties=species:S:1:pos:R:3 #=T CELL(abcABC):=T 1.889726e+02=T 90.00000=T Traj:=T positionsangstrom=T Step:=T 0=T Bead:=T pbc="F F F"
C      -43.98590000     -32.28430000     -69.69580000
C      -44.28970000     -33.47370000     -69.01760000
C      -45.53630000     -33.63260000     -68.31510000
C      -46.46880000     -32.52660000     -68.37040000
C      -46.05060000     -31.24430000     -68.87420000
C      -44.83480000     -31.18810000     -69.62080000
H      -43.13780000     -32.26350000     -70.38040000
H      -45.67950000     -34.50920000     -67.79750000
H      -46.84870000     -30.43130000     -68.73140000
H      -44.44510000     -30.30340000     -70.04630000
C      -47.82950000     -32.66220000     -67.84340000
H      -48.27690000     -31.70730000     -67.63770000
H      -47.94010000     -33.34540000     -67.04350000
C      -43.34950000     -34.59610000     -68.97920000
H      -42.33050000     -34.26410000     -68.60050000
H      -43.73110000     -35.43830000     -68.44150000
S      -48.98310000     -33.34480000     -69.28390000
S      -43.13820000     -35.12030000     -70.72300000
C      -48.32020000     -32.87180000     -70.93180000
H      -49.12970000     -32.94060000     -71.65640000
H      -48.25740000     -31.77110000     -70.89330000
C      -44.60520000     -36.20610000     -71.02080000
H      -45.45570000     -35.77190000     -70.55560000
H      -44.43770000     -37.28430000     -70.61290000
C      -44.94310000     -36.28940000     -72.47450000
H      -44.38680000     -37.09720000     -72.99600000
H      -45.98740000     -36.61480000     -72.60980000
C      -47.10520000     -33.69550000     -71.46100000
H      -47.54950000     -34.60670000     -71.92420000
H      -46.65720000     -34.26640000     -70.71530000
C      -46.17000000     -32.90420000     -72.30800000
C      -46.26200000     -31.57380000     -72.65330000
C      -45.14910000     -33.61310000     -73.06920000
H      -46.96760000     -30.85770000     -72.25650000
C      -44.41710000     -32.73980000     -73.86830000
C      -44.68800000     -35.00370000     -73.29800000
C      -43.69200000     -35.04670000     -74.22940000
S      -44.90330000     -31.05960000     -73.68590000
S      -43.11500000     -33.47890000     -74.76010000
H      -43.11740000     -35.91340000     -74.45730000
