40
Properties=species:S:1:pos:R:3 #=T CELL(abcABC):=T 1.889726e+02=T 90.00000=T Traj:=T positionsangstrom=T Step:=T 0=T Bead:=T pbc="F F F"
C      -42.60950000     -32.96660000     -69.49060000
C      -43.24150000     -34.12700000     -69.00020000
C      -44.46540000     -34.00570000     -68.34720000
C      -45.06790000     -32.73270000     -68.22150000
C      -44.47510000     -31.58770000     -68.79920000
C      -43.22770000     -31.70810000     -69.40410000
H      -41.64590000     -33.15970000     -70.12910000
H      -45.11900000     -34.82570000     -68.02550000
H      -44.85220000     -30.57130000     -68.74180000
H      -42.77850000     -30.85280000     -69.89430000
C      -46.32410000     -32.59040000     -67.48220000
H      -46.59190000     -31.52680000     -67.29910000
H      -46.38230000     -33.16040000     -66.60740000
C      -42.77010000     -35.51910000     -69.41100000
H      -41.61990000     -35.41900000     -69.42640000
H      -43.09340000     -36.27240000     -68.74100000
S      -47.83530000     -33.22210000     -68.33870000
S      -43.32700000     -35.99710000     -71.07130000
C      -47.77630000     -32.45090000     -70.06210000
H      -48.60980000     -31.71120000     -69.99670000
H      -46.91270000     -31.78900000     -70.09240000
C      -45.15000000     -35.88930000     -71.14280000
H      -45.55900000     -35.07770000     -70.56000000
H      -45.50940000     -36.83210000     -70.69160000
C      -45.63150000     -35.86600000     -72.65310000
H      -45.12380000     -36.65480000     -73.23850000
H      -46.69710000     -36.10910000     -72.55370000
C      -47.74300000     -33.34330000     -71.26170000
H      -48.84220000     -33.53140000     -71.37500000
H      -47.32000000     -34.29170000     -71.03860000
C      -47.04830000     -32.68990000     -72.40100000
C      -47.21930000     -31.34200000     -72.60830000
C      -46.07360000     -33.31190000     -73.32360000
H      -47.94230000     -30.73990000     -72.15600000
C      -45.57170000     -32.37240000     -74.22370000
C      -45.39030000     -34.58810000     -73.37820000
C      -44.39970000     -34.55080000     -74.36790000
S      -46.24500000     -30.81550000     -74.10630000
S      -44.24000000     -32.98640000     -75.17450000
H      -43.62350000     -35.23370000     -74.61180000
