40
Properties=species:S:1:pos:R:3 #=T CELL(abcABC):=T 1.889726e+02=T 90.00000=T Traj:=T positionsangstrom=T Step:=T 0=T Bead:=T pbc="F F F"
C      -46.09320000     -31.66600000     -68.93580000
C      -47.18160000     -31.12930000     -69.67230000
C      -48.18850000     -31.95180000     -70.18350000
C      -48.20340000     -33.30440000     -69.69590000
C      -47.20210000     -33.75470000     -68.84450000
C      -46.08410000     -32.99030000     -68.46720000
H      -45.27620000     -30.98450000     -68.75700000
H      -48.94120000     -31.56390000     -70.90300000
H      -47.25120000     -34.75030000     -68.42940000
H      -45.26620000     -33.43860000     -67.89110000
C      -49.14390000     -34.33470000     -70.13450000
H      -50.15910000     -33.89620000     -70.30190000
H      -49.28830000     -35.14400000     -69.43320000
C      -47.03470000     -29.71640000     -70.24860000
H      -47.96760000     -29.23170000     -70.33230000
H      -46.39660000     -29.09350000     -69.63140000
S      -48.73100000     -34.99920000     -71.79030000
S      -46.25050000     -29.57370000     -71.92580000
C      -46.99140000     -35.74070000     -71.55410000
H      -46.75910000     -35.31380000     -70.58290000
H      -47.14340000     -36.76420000     -71.51010000
C      -44.70550000     -30.52080000     -72.06930000
H      -44.12400000     -30.28230000     -71.21430000
H      -44.22440000     -30.04470000     -72.93940000
C      -44.89970000     -32.07610000     -72.17050000
H      -45.49140000     -32.42600000     -71.30680000
H      -45.35080000     -32.28320000     -73.10530000
C      -46.02760000     -35.22670000     -72.67040000
H      -46.08920000     -34.09940000     -72.67850000
H      -46.35780000     -35.68990000     -73.59250000
C      -44.50960000     -35.44100000     -72.36330000
C      -43.93510000     -36.65660000     -72.28160000
C      -43.54770000     -34.33710000     -72.13480000
H      -44.37240000     -37.63670000     -72.31990000
C      -42.21500000     -34.74650000     -72.01210000
C      -43.59780000     -32.88140000     -72.12790000
C      -42.41070000     -32.26720000     -71.96300000
S      -42.17030000     -36.52970000     -72.01660000
S      -41.12500000     -33.44260000     -71.86130000
H      -42.20430000     -31.18390000     -71.89710000
