40
Properties=species:S:1:pos:R:3 #=T CELL(abcABC):=T 1.889726e+02=T 90.00000=T Traj:=T positionsangstrom=T Step:=T 0=T Bead:=T pbc="F F F"
C      -46.89150000     -35.55360000     -69.14720000
C      -45.98860000     -34.71590000     -68.46300000
C      -46.30210000     -33.37090000     -68.25490000
C      -47.47650000     -32.80930000     -68.73390000
C      -48.34780000     -33.58900000     -69.49350000
C      -48.03910000     -34.96680000     -69.70020000
H      -46.71780000     -36.61760000     -69.38060000
H      -45.53360000     -32.73730000     -67.74170000
H      -49.25870000     -33.17580000     -69.91910000
H      -48.71670000     -35.66340000     -70.28140000
C      -47.61290000     -31.35160000     -68.41840000
H      -47.15010000     -31.15260000     -67.44950000
H      -48.60620000     -31.00870000     -68.37000000
C      -44.69430000     -35.29110000     -67.89910000
H      -44.56960000     -35.07600000     -66.79200000
H      -44.55610000     -36.43010000     -68.00040000
S      -46.66640000     -30.23840000     -69.51360000
S      -43.16750000     -34.57110000     -68.67600000
C      -46.80510000     -30.99910000     -71.24860000
H      -47.57550000     -31.74920000     -71.19860000
H      -47.16580000     -30.17310000     -71.91420000
C      -43.37560000     -34.77650000     -70.51870000
H      -44.48550000     -34.80140000     -70.78190000
H      -42.86650000     -35.65150000     -70.84810000
C      -42.71320000     -33.63940000     -71.33080000
H      -42.99170000     -32.57840000     -70.97340000
H      -41.67290000     -33.65590000     -71.18170000
C      -45.45570000     -31.57580000     -71.61250000
H      -45.13460000     -32.09590000     -70.73870000
H      -44.80660000     -30.73030000     -71.70520000
C      -45.42660000     -32.40630000     -72.86130000
C      -46.44690000     -32.30760000     -73.76220000
C      -44.33010000     -33.23180000     -73.37350000
H      -47.22700000     -31.55750000     -73.73670000
C      -44.53400000     -33.65300000     -74.66890000
C      -43.12610000     -33.79150000     -72.75870000
C      -42.55310000     -34.74850000     -73.59520000
S      -46.13930000     -33.23570000     -75.25960000
S      -43.36940000     -34.78660000     -75.16660000
H      -41.79170000     -35.38720000     -73.42600000
