40
Properties=species:S:1:pos:R:3 #=T CELL(abcABC):=T 1.889726e+02=T 90.00000=T Traj:=T positionsangstrom=T Step:=T 0=T Bead:=T pbc="F F F"
C      -47.45440000     -35.07520000     -67.76500000
C      -46.19860000     -34.31980000     -67.86770000
C      -46.24600000     -33.02730000     -68.30280000
C      -47.48770000     -32.31270000     -68.54840000
C      -48.71150000     -33.04280000     -68.46500000
C      -48.65040000     -34.43160000     -68.09030000
H      -47.54010000     -36.11110000     -67.51670000
H      -45.26920000     -32.62960000     -68.54580000
H      -49.66170000     -32.61880000     -68.73300000
H      -49.61770000     -35.00260000     -68.09920000
C      -47.47210000     -30.88130000     -68.85080000
H      -47.54190000     -30.31300000     -67.83970000
H      -48.52100000     -30.72410000     -69.32750000
C      -44.92730000     -35.09680000     -67.52650000
H      -44.56490000     -34.82640000     -66.56040000
H      -45.09820000     -36.17450000     -67.43940000
S      -45.90050000     -30.31610000     -69.71240000
S      -43.46520000     -34.65840000     -68.75830000
C      -46.10540000     -31.55260000     -71.11470000
H      -46.21780000     -32.56960000     -70.74360000
H      -47.00290000     -31.22460000     -71.67750000
C      -44.03250000     -34.93350000     -70.49690000
H      -45.08370000     -34.56630000     -70.64750000
H      -44.08390000     -36.03270000     -70.63910000
C      -43.01620000     -34.40700000     -71.44720000
H      -42.72300000     -33.43340000     -71.15590000
H      -42.07620000     -35.03900000     -71.38060000
C      -44.79150000     -31.51240000     -71.99680000
H      -43.93090000     -32.00260000     -71.55890000
H      -44.53690000     -30.48230000     -72.27840000
C      -44.92530000     -32.21670000     -73.30920000
C      -45.64910000     -31.72240000     -74.35570000
C      -44.35590000     -33.49510000     -73.60150000
H      -46.23460000     -30.79000000     -74.31740000
C      -44.53080000     -33.86490000     -74.93810000
C      -43.54290000     -34.46410000     -72.89500000
C      -43.13170000     -35.43490000     -73.75540000
S      -45.60140000     -32.80730000     -75.82130000
S      -43.92070000     -35.40330000     -75.33980000
H      -42.36600000     -36.21920000     -73.60860000
