40
Properties=species:S:1:pos:R:3 #=T CELL(abcABC):=T 1.889726e+02=T 90.00000=T Traj:=T positionsangstrom=T Step:=T 0=T Bead:=T pbc="F F F"
C      -47.22010000     -35.33440000     -68.41420000
C      -46.09060000     -34.60650000     -68.16820000
C      -46.17330000     -33.17280000     -68.12710000
C      -47.36800000     -32.56160000     -68.42520000
C      -48.57300000     -33.27900000     -68.57630000
C      -48.46300000     -34.65610000     -68.49270000
H      -47.12310000     -36.45970000     -68.39360000
H      -45.35000000     -32.53830000     -67.78600000
H      -49.48780000     -32.75190000     -68.84870000
H      -49.39490000     -35.22640000     -68.53140000
C      -47.44100000     -31.04230000     -68.48560000
H      -47.13860000     -30.59400000     -67.49500000
H      -48.53340000     -30.63550000     -68.63130000
C      -44.85960000     -35.36640000     -67.83480000
H      -44.55170000     -35.28630000     -66.78490000
H      -44.91640000     -36.39290000     -68.18310000
S      -46.27320000     -30.34330000     -69.72360000
S      -43.35990000     -34.67330000     -68.73080000
C      -46.44020000     -31.45620000     -71.23130000
H      -46.75090000     -32.41960000     -70.84800000
H      -47.21920000     -30.97390000     -71.74680000
C      -44.06970000     -34.48000000     -70.45570000
H      -44.93590000     -33.78460000     -70.50120000
H      -44.38460000     -35.51620000     -70.80020000
C      -42.93560000     -33.98260000     -71.36030000
H      -42.59360000     -32.98060000     -70.91840000
H      -42.12270000     -34.62110000     -71.18600000
C      -45.13850000     -31.40560000     -71.96220000
H      -44.32730000     -31.70930000     -71.30600000
H      -44.82320000     -30.39620000     -72.21200000
C      -45.08270000     -32.16520000     -73.29390000
C      -46.03020000     -31.91470000     -74.29930000
C      -44.27500000     -33.31320000     -73.61010000
H      -46.81490000     -31.13400000     -74.29920000
C      -44.57270000     -33.85130000     -74.87050000
C      -43.30260000     -34.10520000     -72.83070000
C      -42.83580000     -35.18020000     -73.58970000
S      -45.84910000     -32.94750000     -75.73150000
S      -43.51680000     -35.23180000     -75.19630000
H      -42.32820000     -36.02380000     -73.18970000
