40
Properties=species:S:1:pos:R:3 #=T CELL(abcABC):=T 1.889726e+02=T 90.00000=T Traj:=T positionsangstrom=T Step:=T 0=T Bead:=T pbc="F F F"
C      -46.42170000     -35.68870000     -69.20060000
C      -45.86990000     -34.72250000     -68.37070000
C      -46.50310000     -33.49030000     -68.21530000
C      -47.66280000     -33.22340000     -68.99920000
C      -48.07560000     -34.19240000     -69.94620000
C      -47.52310000     -35.47010000     -69.97470000
H      -45.83240000     -36.60910000     -69.30720000
H      -46.07090000     -32.64790000     -67.66780000
H      -48.89040000     -33.97140000     -70.63410000
H      -47.95900000     -36.08430000     -70.75920000
C      -48.20990000     -31.83190000     -69.05300000
H      -48.82720000     -31.59810000     -68.14160000
H      -48.83750000     -31.71180000     -69.94910000
C      -44.52200000     -35.03680000     -67.74490000
H      -44.33160000     -34.68370000     -66.72690000
H      -44.44230000     -36.10300000     -67.80440000
S      -46.85190000     -30.60140000     -69.10610000
S      -43.14740000     -34.17470000     -68.67100000
C      -46.36290000     -30.94320000     -70.83590000
H      -47.33300000     -30.91260000     -71.41330000
H      -45.82160000     -30.08260000     -71.08560000
C      -43.37430000     -34.71090000     -70.50500000
H      -44.44750000     -34.62290000     -70.69610000
H      -43.01010000     -35.75450000     -70.69680000
C      -42.61770000     -33.76050000     -71.42850000
H      -42.55600000     -32.71580000     -71.11100000
H      -41.54540000     -34.04420000     -71.47080000
C      -45.51300000     -32.20770000     -71.15570000
H      -45.81710000     -33.15490000     -70.63810000
H      -44.50890000     -32.11930000     -70.81230000
C      -45.53460000     -32.59530000     -72.61840000
C      -46.64070000     -32.42980000     -73.48680000
C      -44.41700000     -33.18360000     -73.26180000
H      -47.54330000     -31.85580000     -73.32770000
C      -44.67410000     -33.41550000     -74.62380000
C      -43.11880000     -33.72810000     -72.84890000
C      -42.50750000     -34.26260000     -73.96750000
S      -46.26000000     -32.97040000     -75.17180000
S      -43.34290000     -34.19370000     -75.46190000
H      -41.59320000     -34.72680000     -73.99970000
