40
Properties=species:S:1:pos:R:3 #=T CELL(abcABC):=T 1.889726e+02=T 90.00000=T Traj:=T positionsangstrom=T Step:=T 0=T Bead:=T pbc="F F F"
C      -46.33610000     -35.93250000     -69.43440000
C      -45.80310000     -34.95800000     -68.52480000
C      -46.49130000     -33.80540000     -68.33000000
C      -47.61500000     -33.48580000     -69.07480000
C      -48.10840000     -34.40200000     -69.96650000
C      -47.47740000     -35.62140000     -70.23810000
H      -45.78880000     -36.87330000     -69.50600000
H      -46.15250000     -33.03240000     -67.65510000
H      -49.04800000     -34.28740000     -70.51250000
H      -47.91730000     -36.32960000     -70.98250000
C      -48.39310000     -32.14770000     -68.95920000
H      -48.99390000     -32.10510000     -68.02590000
H      -49.10030000     -32.04640000     -69.76910000
C      -44.45980000     -35.26280000     -67.94580000
H      -44.31210000     -35.09950000     -66.87840000
H      -44.13710000     -36.28780000     -68.31930000
S      -47.23200000     -30.75740000     -68.97420000
S      -43.25930000     -34.04850000     -68.64990000
C      -46.65660000     -30.90800000     -70.74100000
H      -47.58120000     -31.21400000     -71.22380000
H      -46.34450000     -29.93910000     -71.12170000
C      -43.43360000     -34.60630000     -70.41940000
H      -44.56030000     -34.69860000     -70.69300000
H      -43.07230000     -35.57580000     -70.47930000
C      -42.49110000     -33.84920000     -71.43340000
H      -42.22230000     -32.82960000     -71.16000000
H      -41.53530000     -34.34880000     -71.45980000
C      -45.64620000     -31.99050000     -71.13760000
H      -45.88640000     -32.96620000     -70.56420000
H      -44.61970000     -31.75790000     -70.75050000
C      -45.50910000     -32.36500000     -72.59900000
C      -46.48020000     -32.19450000     -73.50970000
C      -44.34920000     -33.05590000     -73.21820000
H      -47.56490000     -31.89220000     -73.28650000
C      -44.49170000     -33.23420000     -74.59890000
C      -43.10940000     -33.69300000     -72.81690000
C      -42.39730000     -34.25900000     -73.89500000
S      -46.09430000     -32.72950000     -75.14200000
S      -43.09680000     -33.99290000     -75.41660000
H      -41.55640000     -34.76000000     -73.89230000
