40
Properties=species:S:1:pos:R:3 #=T CELL(abcABC):=T 1.889726e+02=T 90.00000=T Traj:=T positionsangstrom=T Step:=T 0=T Bead:=T pbc="F F F"
C      -46.42210000     -36.13990000     -69.76980000
C      -45.76910000     -35.30500000     -68.83910000
C      -46.49310000     -34.11390000     -68.50340000
C      -47.71650000     -33.80100000     -69.08850000
C      -48.26700000     -34.68540000     -70.01250000
C      -47.71530000     -35.92000000     -70.25960000
H      -45.92500000     -37.10370000     -69.98310000
H      -46.01780000     -33.33980000     -67.88890000
H      -49.26390000     -34.45130000     -70.39640000
H      -48.10370000     -36.74610000     -70.84520000
C      -48.44900000     -32.56740000     -68.78520000
H      -48.72300000     -32.55540000     -67.70500000
H      -49.42410000     -32.52630000     -69.33710000
C      -44.42060000     -35.70620000     -68.28960000
H      -44.52360000     -35.83800000     -67.17970000
H      -44.11210000     -36.70430000     -68.69340000
S      -47.51990000     -31.03190000     -69.11930000
S      -43.07310000     -34.45780000     -68.63270000
C      -47.21970000     -31.27520000     -70.94730000
H      -47.80040000     -32.12380000     -71.21960000
H      -47.68730000     -30.47280000     -71.51240000
C      -43.03680000     -34.59640000     -70.42460000
H      -43.90300000     -35.06890000     -70.82180000
H      -42.16660000     -35.24310000     -70.69250000
C      -42.83120000     -33.28650000     -71.07560000
H      -43.48600000     -32.52930000     -70.69110000
H      -41.79400000     -32.88460000     -70.89660000
C      -45.76840000     -31.57560000     -71.25810000
H      -45.57680000     -32.43200000     -70.59900000
H      -45.07830000     -30.86080000     -70.71790000
C      -45.33310000     -31.84880000     -72.70990000
C      -46.12410000     -31.44160000     -73.69110000
C      -44.26210000     -32.67050000     -73.12000000
H      -47.05630000     -30.89070000     -73.68910000
C      -44.35970000     -32.96520000     -74.45290000
C      -43.17540000     -33.32920000     -72.51170000
C      -42.45120000     -34.08520000     -73.41450000
S      -45.67500000     -32.14360000     -75.25310000
S      -43.14850000     -34.05890000     -75.06480000
H      -41.46700000     -34.52030000     -73.29750000
