40
Properties=species:S:1:pos:R:3 #=T CELL(abcABC):=T 1.889726e+02=T 90.00000=T Traj:=T positionsangstrom=T Step:=T 0=T Bead:=T pbc="F F F"
C      -46.35030000     -36.04640000     -69.64290000
C      -45.81460000     -35.19400000     -68.67440000
C      -46.55630000     -34.04690000     -68.46610000
C      -47.70420000     -33.71420000     -69.13550000
C      -48.28460000     -34.58290000     -69.99160000
C      -47.62320000     -35.77280000     -70.25900000
H      -45.80430000     -36.91490000     -70.04650000
H      -46.13030000     -33.38050000     -67.70570000
H      -49.14980000     -34.22940000     -70.55370000
H      -48.00970000     -36.50370000     -70.95990000
C      -48.35010000     -32.40850000     -68.78010000
H      -48.46860000     -32.34320000     -67.73490000
H      -49.31290000     -32.28230000     -69.28780000
C      -44.51410000     -35.38470000     -67.96720000
H      -44.64960000     -35.19960000     -66.88250000
H      -44.19950000     -36.39500000     -68.01460000
S      -47.37680000     -30.87360000     -69.16260000
S      -43.23850000     -34.20640000     -68.61040000
C      -46.82350000     -31.09500000     -70.92170000
H      -47.67670000     -31.51310000     -71.51900000
H      -46.58670000     -30.07330000     -71.26700000
C      -43.11470000     -34.57460000     -70.44500000
H      -44.11780000     -34.78690000     -70.77410000
H      -42.53610000     -35.50220000     -70.57190000
C      -42.53490000     -33.42470000     -71.30010000
H      -42.93350000     -32.49100000     -70.83560000
H      -41.46120000     -33.43160000     -71.18500000
C      -45.57410000     -31.91090000     -71.10850000
H      -45.60750000     -32.83310000     -70.62200000
H      -44.77610000     -31.26230000     -70.85200000
C      -45.43690000     -32.20000000     -72.58660000
C      -46.32210000     -31.84390000     -73.53730000
C      -44.36200000     -32.98680000     -73.17520000
H      -47.25130000     -31.17460000     -73.52970000
C      -44.52600000     -33.23680000     -74.53780000
C      -43.05630000     -33.49160000     -72.65670000
C      -42.31800000     -34.03830000     -73.68650000
S      -45.85430000     -32.38980000     -75.14480000
S      -43.21710000     -34.03090000     -75.26420000
H      -41.37910000     -34.43700000     -73.60940000
