40
Properties=species:S:1:pos:R:3 #=T CELL(abcABC):=T 1.889726e+02=T 90.00000=T Traj:=T positionsangstrom=T Step:=T 0=T Bead:=T pbc="F F F"
C      -42.45880000     -33.79530000     -71.35900000
C      -42.89140000     -34.72060000     -70.37190000
C      -43.24030000     -34.34540000     -69.06840000
C      -43.28110000     -32.95500000     -68.76740000
C      -42.72900000     -32.06920000     -69.71180000
C      -42.44680000     -32.44620000     -70.99050000
H      -42.35750000     -34.03190000     -72.38530000
H      -43.71750000     -35.09470000     -68.39140000
H      -42.72350000     -31.01290000     -69.45950000
H      -42.29990000     -31.68450000     -71.80370000
C      -43.85280000     -32.47510000     -67.51550000
H      -43.65130000     -31.39200000     -67.51690000
H      -43.34170000     -32.88500000     -66.61430000
C      -43.10900000     -36.12600000     -70.77870000
H      -42.26000000     -36.58020000     -71.37220000
H      -43.28480000     -36.75640000     -69.88700000
S      -45.73840000     -32.72960000     -67.38060000
S      -44.43050000     -36.34970000     -72.14310000
C      -46.35750000     -31.81460000     -68.80610000
H      -47.33500000     -31.44310000     -68.45470000
H      -45.73590000     -30.86670000     -68.91810000
C      -45.96560000     -36.05920000     -71.15020000
H      -45.73040000     -35.32930000     -70.31520000
H      -46.20040000     -37.04700000     -70.71190000
C      -47.22550000     -35.46230000     -71.87320000
H      -47.72070000     -36.26380000     -72.49540000
H      -47.95350000     -34.96720000     -71.15160000
C      -46.30700000     -32.73280000     -70.05910000
H      -47.06120000     -33.48350000     -69.91240000
H      -45.33040000     -33.21550000     -69.92240000
C      -46.46280000     -32.08880000     -71.42470000
C      -46.37990000     -30.74760000     -71.77080000
C      -46.70480000     -32.94870000     -72.57550000
H      -46.16970000     -30.01540000     -71.01090000
C      -46.58850000     -32.22590000     -73.80980000
C      -46.95230000     -34.36860000     -72.81250000
C      -47.02620000     -34.63330000     -74.12640000
S      -46.44010000     -30.49760000     -73.50550000
S      -46.87070000     -33.30400000     -75.15420000
H      -47.16720000     -35.70720000     -74.39260000
