40
Properties=species:S:1:pos:R:3 #=T CELL(abcABC):=T 1.889726e+02=T 90.00000=T Traj:=T positionsangstrom=T Step:=T 0=T Bead:=T pbc="F F F"
C      -42.36810000     -33.64630000     -71.34940000
C      -43.04830000     -34.60480000     -70.57220000
C      -43.48860000     -34.34260000     -69.24280000
C      -43.25100000     -33.08730000     -68.77280000
C      -42.71610000     -32.07130000     -69.62070000
C      -42.30700000     -32.30660000     -70.89630000
H      -41.83150000     -34.11130000     -72.24760000
H      -43.82770000     -35.09600000     -68.58040000
H      -42.59970000     -31.08900000     -69.19660000
H      -41.75540000     -31.57930000     -71.48660000
C      -43.83690000     -32.73010000     -67.44300000
H      -43.60830000     -31.67480000     -67.25870000
H      -43.55510000     -33.37440000     -66.60480000
C      -43.00130000     -36.09070000     -71.07500000
H      -42.20580000     -36.34100000     -71.73180000
H      -43.01400000     -36.66150000     -70.15030000
S      -45.68410000     -32.79860000     -67.42880000
S      -44.54490000     -36.44100000     -72.10630000
C      -46.13400000     -31.73430000     -68.91990000
H      -46.76990000     -30.91640000     -68.59510000
H      -45.26780000     -31.30550000     -69.39000000
C      -45.86050000     -35.79330000     -70.88600000
H      -45.41070000     -34.99300000     -70.29690000
H      -46.18100000     -36.62370000     -70.28290000
C      -47.16210000     -35.37850000     -71.75060000
H      -47.51190000     -36.26750000     -72.21700000
H      -47.94860000     -35.15550000     -71.08300000
C      -46.83740000     -32.64580000     -69.95420000
H      -47.87820000     -32.73660000     -69.67490000
H      -46.42740000     -33.66300000     -69.97120000
C      -46.66210000     -32.12640000     -71.42840000
C      -46.35710000     -30.80020000     -71.70420000
C      -46.81700000     -32.98900000     -72.56290000
H      -46.22410000     -29.99550000     -71.01690000
C      -46.72510000     -32.24820000     -73.72040000
C      -46.90230000     -34.35110000     -72.82780000
C      -46.92410000     -34.69080000     -74.14310000
S      -46.29660000     -30.57040000     -73.50650000
S      -46.83410000     -33.22820000     -75.19040000
H      -46.84180000     -35.68500000     -74.60680000
