40
Properties=species:S:1:pos:R:3 #=T CELL(abcABC):=T 1.889726e+02=T 90.00000=T Traj:=T positionsangstrom=T Step:=T 0=T Bead:=T pbc="F F F"
C      -48.26280000     -35.79500000     -71.19260000
C      -46.98090000     -36.23980000     -70.94720000
C      -46.50000000     -36.09580000     -69.62420000
C      -47.11680000     -35.20810000     -68.75200000
C      -48.44000000     -34.72900000     -69.05560000
C      -48.95990000     -34.99230000     -70.32100000
H      -48.71510000     -35.86830000     -72.15670000
H      -45.47820000     -36.30490000     -69.34250000
H      -48.92330000     -33.99860000     -68.43050000
H      -49.86110000     -34.47020000     -70.63820000
C      -46.47660000     -34.67920000     -67.46080000
H      -46.51670000     -35.48520000     -66.70190000
H      -46.99160000     -33.77510000     -67.24520000
C      -46.11760000     -37.13210000     -71.87190000
H      -45.06800000     -37.17520000     -71.47420000
H      -46.40800000     -38.15480000     -72.02360000
S      -44.69810000     -34.24750000     -67.61150000
S      -46.06730000     -36.44840000     -73.59020000
C      -44.84330000     -32.95030000     -68.98350000
H      -45.83740000     -32.89230000     -69.39440000
H      -44.62610000     -32.02540000     -68.59970000
C      -45.23290000     -34.72670000     -73.72850000
H      -45.17770000     -34.59300000     -74.83650000
H      -44.18530000     -34.67110000     -73.32030000
C      -46.01090000     -33.52770000     -73.14190000
H      -47.10850000     -33.43630000     -73.53180000
H      -46.11820000     -33.67650000     -72.07520000
C      -43.80260000     -33.32740000     -70.11410000
H      -44.09970000     -34.13640000     -70.77350000
H      -42.84720000     -33.66020000     -69.68480000
C      -43.56440000     -32.10030000     -70.99320000
C      -42.67190000     -31.12040000     -70.63210000
C      -44.16320000     -31.80210000     -72.29680000
H      -42.07490000     -31.11810000     -69.70460000
C      -43.73420000     -30.49910000     -72.76530000
C      -45.23690000     -32.18250000     -73.23470000
C      -45.51090000     -31.27770000     -74.23080000
S      -42.50520000     -29.76940000     -71.70890000
S      -44.58330000     -29.74480000     -74.06380000
H      -46.37230000     -31.38330000     -74.95590000
