40
Properties=species:S:1:pos:R:3 #=T CELL(abcABC):=T 1.889726e+02=T 90.00000=T Traj:=T positionsangstrom=T Step:=T 0=T Bead:=T pbc="F F F"
C      -46.50030000     -36.43400000     -70.38330000
C      -45.92910000     -35.86500000     -69.23200000
C      -46.67290000     -34.89080000     -68.52970000
C      -47.86690000     -34.37950000     -69.05140000
C      -48.41920000     -34.99960000     -70.24900000
C      -47.72000000     -35.96820000     -70.92510000
H      -46.03530000     -37.22940000     -70.95600000
H      -46.29390000     -34.35830000     -67.62200000
H      -49.30810000     -34.61640000     -70.71060000
H      -48.16670000     -36.36740000     -71.81340000
C      -48.44740000     -33.18410000     -68.41850000
H      -48.39440000     -33.25780000     -67.35850000
H      -49.47550000     -33.05960000     -68.73380000
C      -44.64930000     -36.37290000     -68.61010000
H      -44.83810000     -36.85130000     -67.57700000
H      -44.21330000     -37.18840000     -69.14580000
S      -47.45200000     -31.64770000     -68.99740000
S      -43.27330000     -35.13240000     -68.51600000
C      -47.20230000     -31.84490000     -70.82490000
H      -47.19030000     -32.96510000     -71.12970000
H      -48.15770000     -31.55310000     -71.40070000
C      -43.02450000     -34.58750000     -70.29640000
H      -42.97620000     -35.55040000     -70.84140000
H      -42.07020000     -34.09570000     -70.20690000
C      -44.06260000     -33.52970000     -70.90410000
H      -45.10240000     -33.74360000     -70.50940000
H      -43.74320000     -32.67500000     -70.40080000
C      -46.04060000     -30.97060000     -71.40990000
H      -45.12820000     -30.91580000     -70.75160000
H      -46.37260000     -29.83340000     -71.47950000
C      -45.44560000     -31.32200000     -72.75880000
C      -45.66680000     -30.53190000     -73.84980000
C      -44.54450000     -32.37950000     -73.07910000
H      -46.25310000     -29.62850000     -74.03810000
C      -44.04110000     -32.25100000     -74.39080000
C      -43.81190000     -33.36510000     -72.35060000
C      -42.82000000     -33.99880000     -73.09710000
S      -44.66780000     -30.91300000     -75.30940000
S      -42.76270000     -33.33680000     -74.74500000
H      -42.14570000     -34.85250000     -73.07130000
