40
Properties=species:S:1:pos:R:3 #=T CELL(abcABC):=T 1.889726e+02=T 90.00000=T Traj:=T positionsangstrom=T Step:=T 0=T Bead:=T pbc="F F F"
C      -46.55100000     -36.87760000     -71.75370000
C      -46.26760000     -36.58910000     -70.38880000
C      -47.06310000     -35.60990000     -69.75240000
C      -48.08990000     -34.87410000     -70.46320000
C      -48.39410000     -35.32020000     -71.75540000
C      -47.56040000     -36.25900000     -72.45160000
H      -45.75890000     -37.35370000     -72.28840000
H      -46.71500000     -35.24030000     -68.76020000
H      -49.19500000     -34.73840000     -72.26690000
H      -47.79380000     -36.44820000     -73.49180000
C      -48.94420000     -33.82540000     -69.80390000
H      -49.52590000     -34.24470000     -68.89380000
H      -49.69400000     -33.52220000     -70.48550000
C      -45.08580000     -37.24930000     -69.71060000
H      -45.39410000     -37.79430000     -68.82650000
H      -44.53640000     -37.91540000     -70.40120000
S      -47.91060000     -32.41110000     -69.09290000
S      -43.84800000     -36.04500000     -68.95880000
C      -47.00690000     -31.94310000     -70.65490000
H      -46.59940000     -32.85170000     -71.09530000
H      -47.68350000     -31.64240000     -71.39530000
C      -43.33150000     -34.98970000     -70.31950000
H      -43.07950000     -35.66490000     -71.19940000
H      -42.38750000     -34.42240000     -70.08300000
C      -44.29850000     -33.89150000     -70.75110000
H      -45.28410000     -34.44000000     -71.02470000
H      -44.48530000     -33.18370000     -69.89530000
C      -45.95400000     -30.88820000     -70.37950000
H      -45.29740000     -31.19450000     -69.59360000
H      -46.41380000     -29.93010000     -70.06850000
C      -45.05320000     -30.69690000     -71.63180000
C      -44.91030000     -29.51710000     -72.33980000
C      -44.07670000     -31.67990000     -72.10350000
H      -45.51040000     -28.64490000     -72.12550000
C      -43.40550000     -31.17590000     -73.20470000
C      -43.73180000     -33.08160000     -71.90670000
C      -42.95470000     -33.61710000     -72.89480000
S      -43.80990000     -29.51880000     -73.64300000
S      -42.59520000     -32.44080000     -74.18550000
H      -42.47780000     -34.62710000     -73.00780000
