40
Properties=species:S:1:pos:R:3 #=T CELL(abcABC):=T 1.889726e+02=T 90.00000=T Traj:=T positionsangstrom=T Step:=T 0=T Bead:=T pbc="F F F"
C      -43.10770000     -34.14070000     -72.34140000
C      -43.33060000     -35.41620000     -71.75540000
C      -43.23250000     -35.52840000     -70.36650000
C      -43.03800000     -34.39460000     -69.56330000
C      -42.53120000     -33.20490000     -70.17150000
C      -42.66840000     -33.01080000     -71.58860000
H      -43.20820000     -34.04460000     -73.38770000
H      -43.39070000     -36.49190000     -69.93800000
H      -42.34770000     -32.32170000     -69.56240000
H      -42.33260000     -32.05230000     -72.04110000
C      -43.08040000     -34.43300000     -68.02080000
H      -42.34890000     -33.86720000     -67.51860000
H      -42.87510000     -35.46500000     -67.68500000
C      -43.76980000     -36.58020000     -72.52210000
H      -43.07970000     -36.82120000     -73.24780000
H      -43.87120000     -37.43940000     -71.92040000
S      -44.77570000     -33.95230000     -67.28790000
S      -45.43220000     -36.13070000     -73.27910000
C      -45.37410000     -32.52380000     -68.33820000
H      -45.71880000     -31.76000000     -67.64140000
H      -44.49030000     -32.10580000     -68.87990000
C      -46.51530000     -35.94170000     -71.79330000
H      -45.82410000     -35.73510000     -70.97170000
H      -46.91410000     -36.91040000     -71.51220000
C      -47.53030000     -34.73440000     -71.92790000
H      -48.37560000     -35.07370000     -72.51020000
H      -47.90800000     -34.46970000     -70.96030000
C      -46.40670000     -32.87360000     -69.37570000
H      -47.43070000     -32.97120000     -68.92280000
H      -46.26670000     -33.79520000     -69.84080000
C      -46.34400000     -31.89510000     -70.54030000
C      -45.99160000     -30.58120000     -70.39050000
C      -46.76300000     -32.27330000     -71.87890000
H      -45.72680000     -29.97710000     -69.52480000
C      -46.58620000     -31.19310000     -72.73180000
C      -47.09680000     -33.47050000     -72.58710000
C      -47.27430000     -33.21830000     -73.92150000
S      -46.11080000     -29.73010000     -71.92670000
S      -46.91910000     -31.56010000     -74.43930000
H      -47.74530000     -33.93000000     -74.55080000
