40
Properties=species:S:1:pos:R:3 #=T CELL(abcABC):=T 1.889726e+02=T 90.00000=T Traj:=T positionsangstrom=T Step:=T 0=T Bead:=T pbc="F F F"
C      -43.38920000     -33.92260000     -72.61490000
C      -43.84580000     -35.03730000     -71.96140000
C      -43.88240000     -35.08670000     -70.55130000
C      -43.17000000     -34.09600000     -69.80490000
C      -42.51730000     -32.99180000     -70.43730000
C      -42.62320000     -32.95640000     -71.86950000
H      -43.14270000     -34.00060000     -73.67770000
H      -44.23120000     -35.98390000     -70.07970000
H      -41.94090000     -32.27250000     -69.87320000
H      -42.12360000     -32.18520000     -72.42910000
C      -43.08210000     -34.21090000     -68.29830000
H      -42.63590000     -33.28350000     -67.85180000
H      -42.31520000     -35.02590000     -68.03670000
C      -44.28410000     -36.28330000     -72.63710000
H      -43.66680000     -36.66690000     -73.46940000
H      -44.25050000     -37.13570000     -71.85670000
S      -44.58460000     -34.66250000     -67.41370000
S      -45.97500000     -36.07160000     -73.38560000
C      -45.64010000     -33.23490000     -67.93450000
H      -46.41020000     -33.16990000     -67.23210000
H      -44.95800000     -32.39290000     -68.00400000
C      -47.11500000     -35.81420000     -71.96280000
H      -46.57340000     -35.91960000     -71.03340000
H      -47.79560000     -36.67310000     -71.99890000
C      -48.06330000     -34.49510000     -72.11090000
H      -48.85640000     -34.75810000     -72.89110000
H      -48.71790000     -34.29050000     -71.24110000
C      -46.26290000     -33.23260000     -69.38750000
H      -47.31140000     -33.27650000     -69.40090000
H      -46.12130000     -34.13300000     -69.90730000
C      -45.99620000     -32.09050000     -70.33180000
C      -45.38680000     -30.89590000     -70.09090000
C      -46.49700000     -32.25880000     -71.73920000
H      -44.97220000     -30.53410000     -69.21640000
C      -46.12360000     -31.14600000     -72.52390000
C      -47.29960000     -33.17390000     -72.51990000
C      -47.34180000     -32.85790000     -73.82620000
S      -45.39050000     -29.88830000     -71.56870000
S      -46.45210000     -31.37470000     -74.20040000
H      -48.01760000     -33.09670000     -74.63350000
