40
Properties=species:S:1:pos:R:3 #=T CELL(abcABC):=T 1.889726e+02=T 90.00000=T Traj:=T positionsangstrom=T Step:=T 0=T Bead:=T pbc="F F F"
C      -46.82910000     -36.68230000     -71.99400000
C      -46.57160000     -36.46870000     -70.60270000
C      -47.41760000     -35.66800000     -69.83900000
C      -48.36290000     -34.88180000     -70.53850000
C      -48.55350000     -35.00290000     -71.90540000
C      -47.81170000     -35.93740000     -72.64470000
H      -46.28680000     -37.48170000     -72.59680000
H      -47.21170000     -35.56060000     -68.78680000
H      -49.15740000     -34.27520000     -72.41290000
H      -47.81870000     -35.88020000     -73.78610000
C      -49.10190000     -33.78510000     -69.78530000
H      -49.35110000     -34.21630000     -68.69090000
H      -49.99820000     -33.66010000     -70.31550000
C      -45.52040000     -37.32150000     -69.94070000
H      -45.94230000     -37.91540000     -69.18750000
H      -45.04620000     -38.02310000     -70.58270000
S      -48.31360000     -32.17080000     -69.67240000
S      -44.26450000     -36.17210000     -69.21140000
C      -46.68370000     -32.38920000     -70.52350000
H      -46.12950000     -33.22420000     -70.21710000
H      -46.78930000     -32.56750000     -71.61890000
C      -43.90580000     -35.10380000     -70.66410000
H      -44.83010000     -34.88790000     -71.14680000
H      -43.21160000     -35.64570000     -71.31590000
C      -43.34670000     -33.81770000     -70.20860000
H      -44.12560000     -33.37110000     -69.50210000
H      -42.39350000     -34.09870000     -69.70770000
C      -45.84200000     -31.13140000     -70.27530000
H      -45.18840000     -31.25680000     -69.35870000
H      -46.46510000     -30.23620000     -70.14650000
C      -44.90800000     -30.90390000     -71.42980000
C      -45.08560000     -29.84210000     -72.25520000
C      -43.78710000     -31.80460000     -71.90530000
H      -45.60130000     -28.90370000     -71.99800000
C      -43.28950000     -31.31760000     -73.07950000
C      -43.01860000     -32.93580000     -71.45570000
C      -41.95890000     -33.25990000     -72.31340000
S      -44.00510000     -29.78290000     -73.69770000
S      -41.87160000     -32.18260000     -73.67720000
H      -41.17380000     -34.06220000     -72.27870000
