40
Properties=species:S:1:pos:R:3 #=T CELL(abcABC):=T 1.889726e+02=T 90.00000=T Traj:=T positionsangstrom=T Step:=T 0=T Bead:=T pbc="F F F"
C      -44.67370000     -37.05650000     -69.83990000
C      -45.89230000     -36.38510000     -70.04940000
C      -46.30160000     -36.19120000     -71.35230000
C      -45.51740000     -36.66170000     -72.43270000
C      -44.31290000     -37.32760000     -72.24270000
C      -43.89730000     -37.50500000     -70.92350000
H      -44.37350000     -37.29490000     -68.78560000
H      -47.28050000     -35.78020000     -71.69020000
H      -43.74670000     -37.54240000     -73.19190000
H      -42.97940000     -38.10000000     -70.72340000
C      -45.91950000     -36.28350000     -73.83060000
H      -46.97870000     -35.93540000     -73.71470000
H      -45.90390000     -37.13240000     -74.48430000
C      -46.82000000     -35.98680000     -68.92390000
H      -47.11610000     -36.99790000     -68.49490000
H      -46.23170000     -35.50230000     -68.16080000
S      -44.83210000     -35.03550000     -74.71180000
S      -48.26570000     -34.91900000     -69.31300000
C      -44.87390000     -33.51910000     -73.68400000
H      -44.59210000     -32.66170000     -74.26240000
H      -45.93000000     -33.44460000     -73.42400000
C      -47.36450000     -33.35380000     -69.22970000
H      -46.61850000     -33.53670000     -68.35420000
H      -48.19180000     -32.70810000     -68.78470000
C      -46.59580000     -32.88820000     -70.47000000
H      -45.79960000     -33.60640000     -70.62140000
H      -47.26830000     -32.94230000     -71.28290000
C      -44.02770000     -33.42770000     -72.37870000
H      -43.01000000     -33.90630000     -72.45660000
H      -44.45110000     -34.06040000     -71.58620000
C      -43.83490000     -31.98990000     -71.94560000
C      -42.77210000     -31.20770000     -72.35990000
C      -44.76120000     -31.20810000     -71.12280000
H      -41.88860000     -31.33140000     -73.03560000
C      -44.46310000     -29.86210000     -71.07260000
C      -46.00870000     -31.49380000     -70.42300000
C      -46.49550000     -30.35910000     -69.76210000
S      -42.85080000     -29.53900000     -71.64400000
S      -45.51950000     -28.90790000     -70.06500000
H      -47.42940000     -30.38960000     -69.15750000
