40
Properties=species:S:1:pos:R:3 #=T CELL(abcABC):=T 1.889726e+02=T 90.00000=T Traj:=T positionsangstrom=T Step:=T 0=T Bead:=T pbc="F F F"
C      -44.40420000     -36.83200000     -69.85300000
C      -45.72680000     -36.43390000     -70.07010000
C      -46.24870000     -36.38140000     -71.40520000
C      -45.39140000     -36.68930000     -72.47930000
C      -44.08540000     -37.11990000     -72.21670000
C      -43.59270000     -37.22300000     -70.89770000
H      -44.17830000     -36.92990000     -68.84270000
H      -47.23220000     -35.96070000     -71.64260000
H      -43.43670000     -37.36980000     -73.00550000
H      -42.56040000     -37.43570000     -70.66940000
C      -45.76850000     -36.52470000     -73.85570000
H      -46.78470000     -36.21780000     -73.93520000
H      -45.67450000     -37.49710000     -74.32820000
C      -46.54780000     -36.33580000     -68.77970000
H      -47.13420000     -37.23910000     -68.73680000
H      -45.96950000     -36.30690000     -67.85160000
S      -44.91170000     -35.16870000     -74.83330000
S      -48.00680000     -35.08670000     -68.77900000
C      -45.07350000     -33.52420000     -73.86710000
H      -44.98900000     -32.75590000     -74.65370000
H      -46.06920000     -33.30880000     -73.47940000
C      -47.12790000     -33.44980000     -68.99560000
H      -46.16870000     -33.49920000     -68.36670000
H      -47.87480000     -32.69830000     -68.56040000
C      -46.76930000     -32.96280000     -70.42680000
H      -46.07060000     -33.67880000     -70.88790000
H      -47.62040000     -32.92620000     -71.04290000
C      -44.02380000     -33.18330000     -72.75260000
H      -43.01030000     -33.48700000     -73.08620000
H      -44.32520000     -33.82640000     -71.88960000
C      -44.02130000     -31.72650000     -72.31980000
C      -43.29980000     -30.73910000     -72.86880000
C      -44.83660000     -31.19180000     -71.17850000
H      -42.55740000     -30.98220000     -73.55270000
C      -44.47660000     -29.86540000     -70.89820000
C      -45.98270000     -31.61330000     -70.39710000
C      -46.40480000     -30.60210000     -69.54100000
S      -43.29300000     -29.21250000     -72.05460000
S      -45.56750000     -29.05020000     -69.74710000
H      -47.17690000     -30.71850000     -68.80590000
