40
Properties=species:S:1:pos:R:3 #=T CELL(abcABC):=T 1.889726e+02=T 90.00000=T Traj:=T positionsangstrom=T Step:=T 0=T Bead:=T pbc="F F F"
C      -46.18770000     -37.02820000     -70.00060000
C      -47.13260000     -36.13610000     -70.50890000
C      -46.95690000     -35.72900000     -71.87120000
C      -45.87320000     -36.19060000     -72.64270000
C      -44.95550000     -37.09670000     -72.02650000
C      -45.13370000     -37.54980000     -70.75570000
H      -46.32390000     -37.38270000     -68.98800000
H      -47.70680000     -35.07100000     -72.24580000
H      -44.01350000     -37.43290000     -72.61440000
H      -44.40910000     -38.17950000     -70.17470000
C      -45.75720000     -35.93710000     -74.12090000
H      -46.50710000     -35.31950000     -74.57530000
H      -45.84280000     -36.88830000     -74.67740000
C      -48.08920000     -35.58860000     -69.47300000
H      -48.88310000     -36.27950000     -69.24330000
H      -47.50790000     -35.40500000     -68.57720000
S      -43.97640000     -35.26220000     -74.45230000
S      -48.93260000     -33.95390000     -69.83860000
C      -44.04430000     -33.72760000     -73.44840000
H      -43.15660000     -33.16130000     -73.83300000
H      -44.89490000     -33.08020000     -73.64120000
C      -47.46280000     -32.88560000     -69.81390000
H      -46.57570000     -33.33760000     -69.36690000
H      -47.58170000     -31.97340000     -69.26970000
C      -46.99490000     -32.28520000     -71.20740000
H      -46.68990000     -33.08270000     -71.78750000
H      -47.86960000     -31.77800000     -71.56380000
C      -43.84320000     -33.92080000     -71.89820000
H      -42.94700000     -34.54230000     -71.78170000
H      -44.78510000     -34.37840000     -71.54320000
C      -43.56390000     -32.59780000     -71.20080000
C      -42.22480000     -32.16130000     -71.14580000
C      -44.52550000     -31.48340000     -70.97890000
H      -41.42260000     -32.89830000     -71.32060000
C      -43.77600000     -30.31570000     -70.72700000
C      -45.94040000     -31.26060000     -70.94150000
C      -46.26400000     -30.01140000     -70.47520000
S      -42.03190000     -30.50240000     -70.79820000
S      -44.81040000     -29.07740000     -70.09190000
H      -47.31050000     -29.68070000     -70.37960000
