40
Properties=species:S:1:pos:R:3 #=T CELL(abcABC):=T 1.889726e+02=T 90.00000=T Traj:=T positionsangstrom=T Step:=T 0=T Bead:=T pbc="F F F"
C      -45.88420000     -31.98500000     -68.45640000
C      -46.61480000     -31.33740000     -69.41710000
C      -47.75240000     -31.97900000     -69.98820000
C      -48.04530000     -33.33370000     -69.66070000
C      -47.28680000     -33.95370000     -68.66200000
C      -46.25500000     -33.27220000     -68.02560000
H      -45.05900000     -31.42730000     -68.00690000
H      -48.32480000     -31.50460000     -70.77660000
H      -47.58570000     -34.99200000     -68.42050000
H      -45.73610000     -33.78600000     -67.26950000
C      -49.26160000     -33.94550000     -70.27170000
H      -49.82490000     -33.13930000     -70.73420000
H      -49.85810000     -34.39430000     -69.43700000
C      -46.29320000     -29.88300000     -69.76210000
H      -47.14530000     -29.25480000     -69.33860000
H      -45.42350000     -29.54260000     -69.09830000
S      -48.89740000     -35.23370000     -71.61930000
S      -46.05760000     -29.39500000     -71.51520000
C      -47.10130000     -35.71780000     -71.47470000
H      -46.76750000     -35.50490000     -70.41650000
H      -46.96700000     -36.78520000     -71.70730000
C      -44.55810000     -30.44390000     -72.06930000
H      -43.81540000     -30.47830000     -71.20910000
H      -44.11860000     -30.00830000     -72.95220000
C      -44.93260000     -31.86570000     -72.45850000
H      -45.61630000     -32.23030000     -71.77790000
H      -45.54530000     -31.79070000     -73.42950000
C      -46.19350000     -34.96450000     -72.39300000
H      -46.43450000     -33.82550000     -72.34950000
H      -46.40550000     -35.28010000     -73.46430000
C      -44.69990000     -35.22700000     -72.19530000
C      -44.16960000     -36.49620000     -71.90530000
C      -43.72330000     -34.23820000     -72.47610000
H      -44.67020000     -37.45060000     -71.81070000
C      -42.42170000     -34.81310000     -72.46980000
C      -43.70030000     -32.75500000     -72.59480000
C      -42.41560000     -32.29370000     -72.65880000
S      -42.41960000     -36.50820000     -72.08010000
S      -41.19070000     -33.53590000     -72.66030000
H      -42.08320000     -31.20250000     -72.71390000
