40
Properties=species:S:1:pos:R:3 #=T CELL(abcABC):=T 1.889726e+02=T 90.00000=T Traj:=T positionsangstrom=T Step:=T 0=T Bead:=T pbc="F F F"
C      -43.14630000     -34.21480000     -72.78720000
C      -43.80840000     -35.32560000     -72.20110000
C      -43.95690000     -35.27520000     -70.80600000
C      -43.52080000     -34.21470000     -70.02780000
C      -42.72360000     -33.23280000     -70.63780000
C      -42.57940000     -33.24250000     -72.03190000
H      -42.99560000     -34.12760000     -73.85150000
H      -44.61070000     -36.02600000     -70.28370000
H      -42.27740000     -32.38900000     -70.04710000
H      -42.15520000     -32.37890000     -72.38510000
C      -43.82830000     -34.16840000     -68.50640000
H      -43.83330000     -33.15390000     -68.11900000
H      -43.01170000     -34.57920000     -67.97890000
C      -44.38750000     -36.50430000     -72.88960000
H      -43.94230000     -36.77960000     -73.86400000
H      -44.47380000     -37.31610000     -72.18280000
S      -45.42060000     -34.96190000     -68.00420000
S      -46.04490000     -36.10930000     -73.55190000
C      -46.50300000     -33.40850000     -67.94490000
H      -47.34700000     -33.63340000     -67.32720000
H      -45.94280000     -32.54040000     -67.69880000
C      -46.93160000     -35.35040000     -72.15400000
H      -46.22100000     -35.09070000     -71.36260000
H      -47.52530000     -36.12160000     -71.58500000
C      -47.68590000     -34.14940000     -72.65700000
H      -47.94060000     -34.31900000     -73.67910000
H      -48.60460000     -33.98920000     -72.08150000
C      -47.16330000     -33.14510000     -69.31960000
H      -48.18950000     -32.69020000     -69.26940000
H      -47.21240000     -34.05090000     -69.95210000
C      -46.44720000     -32.09300000     -70.11170000
C      -45.94000000     -30.93820000     -69.55410000
C      -46.31870000     -32.11550000     -71.58350000
H      -46.06060000     -30.69910000     -68.50540000
C      -45.52000000     -31.05720000     -72.00900000
C      -46.67040000     -33.00710000     -72.72160000
C      -46.19120000     -32.54730000     -73.88310000
S      -45.31970000     -29.81730000     -70.77540000
S      -45.16970000     -31.09600000     -73.70840000
H      -46.36950000     -32.87460000     -74.88520000
