40
Properties=species:S:1:pos:R:3 #=T CELL(abcABC):=T 1.889726e+02=T 90.00000=T Traj:=T positionsangstrom=T Step:=T 0=T Bead:=T pbc="F F F"
C      -47.33690000     -36.96580000     -71.36490000
C      -46.73110000     -36.36580000     -70.23160000
C      -47.28350000     -35.19850000     -69.72110000
C      -48.52640000     -34.77150000     -70.11470000
C      -49.16200000     -35.32250000     -71.26110000
C      -48.56910000     -36.44260000     -71.81180000
H      -46.90490000     -37.78900000     -71.85620000
H      -46.65210000     -34.74240000     -68.90680000
H      -50.00420000     -34.83600000     -71.68170000
H      -49.07430000     -36.99820000     -72.66820000
C      -49.06150000     -33.52200000     -69.46270000
H      -49.41180000     -33.57340000     -68.37970000
H      -49.96070000     -33.24760000     -70.04800000
C      -45.61520000     -37.04470000     -69.57950000
H      -45.82310000     -37.59190000     -68.58940000
H      -45.23390000     -37.80920000     -70.23040000
S      -47.91790000     -32.05550000     -69.38250000
S      -44.31750000     -35.79830000     -68.99920000
C      -47.09720000     -32.08230000     -71.03340000
H      -46.75750000     -33.06450000     -71.20050000
H      -47.81950000     -31.98960000     -71.97170000
C      -43.67850000     -35.06300000     -70.49800000
H      -44.36480000     -35.18890000     -71.37580000
H      -42.69240000     -35.49410000     -70.71460000
C      -43.45180000     -33.56510000     -70.20870000
H      -44.37320000     -33.15350000     -69.74690000
H      -42.68670000     -33.53100000     -69.46200000
C      -45.97610000     -31.02900000     -71.13000000
H      -45.44180000     -30.88330000     -70.21490000
H      -46.53480000     -30.10460000     -71.11390000
C      -44.92710000     -31.06110000     -72.22050000
C      -45.11190000     -30.25440000     -73.32560000
C      -43.73930000     -31.83090000     -72.24530000
H      -45.80600000     -29.47290000     -73.57740000
C      -42.98940000     -31.40650000     -73.34090000
C      -43.04650000     -32.88440000     -71.50430000
C      -41.95280000     -33.32620000     -72.12420000
S      -43.72560000     -30.22970000     -74.37690000
S      -41.52190000     -32.32450000     -73.57240000
H      -41.15560000     -34.03410000     -71.78810000
