40
Properties=species:S:1:pos:R:3 #=T CELL(abcABC):=T 1.889726e+02=T 90.00000=T Traj:=T positionsangstrom=T Step:=T 0=T Bead:=T pbc="F F F"
C      -43.16110000     -33.98660000     -72.66020000
C      -43.83130000     -35.01600000     -71.95810000
C      -43.89450000     -34.82020000     -70.57590000
C      -43.47840000     -33.69660000     -69.83860000
C      -42.79350000     -32.69140000     -70.60910000
C      -42.63640000     -32.86740000     -72.01830000
H      -42.99710000     -34.09800000     -73.74510000
H      -44.27000000     -35.62260000     -69.92800000
H      -42.48150000     -31.82100000     -70.09790000
H      -42.16380000     -32.11050000     -72.66810000
C      -43.59150000     -33.53390000     -68.38070000
H      -43.63390000     -32.47860000     -68.09100000
H      -42.71420000     -33.99000000     -67.88680000
C      -44.29530000     -36.33200000     -72.47360000
H      -43.46920000     -36.77830000     -73.05830000
H      -44.56110000     -37.06040000     -71.68550000
S      -45.01860000     -34.44810000     -67.61650000
S      -45.72970000     -36.19990000     -73.70750000
C      -46.55590000     -33.49530000     -67.94080000
H      -47.36230000     -34.04830000     -67.42330000
H      -46.40380000     -32.50430000     -67.51580000
C      -47.09510000     -35.81760000     -72.31680000
H      -46.79520000     -35.84890000     -71.27200000
H      -47.88120000     -36.63370000     -72.37000000
C      -47.72650000     -34.49530000     -72.68580000
H      -48.17710000     -34.59410000     -73.64090000
H      -48.58030000     -34.25300000     -71.99400000
C      -47.11950000     -33.37440000     -69.36770000
H      -48.17460000     -33.46970000     -69.24220000
H      -46.77910000     -34.25410000     -69.99000000
C      -46.63830000     -32.26930000     -70.23230000
C      -46.14840000     -31.10330000     -69.74510000
C      -46.41120000     -32.42950000     -71.67300000
H      -46.08390000     -30.86070000     -68.69360000
C      -45.81870000     -31.29060000     -72.17850000
C      -46.76290000     -33.34590000     -72.73680000
C      -46.29380000     -32.92260000     -73.95430000
S      -45.33650000     -30.13100000     -70.98860000
S      -45.51340000     -31.35780000     -73.93530000
H      -46.45470000     -33.46190000     -74.86940000
