40
Properties=species:S:1:pos:R:3 #=T CELL(abcABC):=T 1.889726e+02=T 90.00000=T Traj:=T positionsangstrom=T Step:=T 0=T Bead:=T pbc="F F F"
C      -42.94930000     -34.32300000     -72.71540000
C      -43.67590000     -35.30690000     -72.09810000
C      -43.78170000     -35.18780000     -70.69660000
C      -43.50240000     -33.99230000     -69.97490000
C      -42.90530000     -32.94290000     -70.71420000
C      -42.65580000     -33.15440000     -72.05510000
H      -42.67100000     -34.54410000     -73.74530000
H      -44.27070000     -35.95060000     -70.06350000
H      -42.62070000     -31.98800000     -70.24610000
H      -42.08860000     -32.39680000     -72.60530000
C      -43.75750000     -33.91500000     -68.46950000
H      -43.81020000     -32.83160000     -68.10470000
H      -42.98430000     -34.56090000     -67.96910000
C      -44.28790000     -36.49800000     -72.81340000
H      -43.65260000     -36.77370000     -73.70630000
H      -44.31060000     -37.33500000     -72.09640000
S      -45.30020000     -34.82570000     -67.94060000
S      -45.93280000     -36.11960000     -73.60170000
C      -46.69130000     -33.55730000     -67.95010000
H      -47.41470000     -34.05380000     -67.29150000
H      -46.52590000     -32.64710000     -67.31430000
C      -47.06230000     -35.60010000     -72.13810000
H      -46.38820000     -35.53750000     -71.33910000
H      -47.92290000     -36.35520000     -72.04560000
C      -47.64860000     -34.21980000     -72.42730000
H      -48.18170000     -34.36300000     -73.37760000
H      -48.39520000     -33.98930000     -71.70450000
C      -47.24810000     -33.19590000     -69.38970000
H      -48.25540000     -32.97370000     -69.10120000
H      -47.21130000     -34.08570000     -69.94740000
C      -46.57190000     -32.08180000     -70.21150000
C      -46.06280000     -30.94200000     -69.65940000
C      -46.28570000     -32.22580000     -71.61360000
H      -46.05140000     -30.68090000     -68.60360000
C      -45.57920000     -31.10790000     -72.08310000
C      -46.69560000     -33.02850000     -72.71700000
C      -46.27030000     -32.60650000     -73.94620000
S      -45.13580000     -29.97710000     -70.77640000
S      -45.44890000     -31.06490000     -73.80530000
H      -46.63680000     -32.84260000     -74.94820000
