40
Properties=species:S:1:pos:R:3 #=T CELL(abcABC):=T 1.889726e+02=T 90.00000=T Traj:=T positionsangstrom=T Step:=T 0=T Bead:=T pbc="F F F"
C      -43.48420000     -34.54980000     -73.06990000
C      -44.25280000     -35.49750000     -72.40360000
C      -44.33620000     -35.41350000     -71.00110000
C      -43.65720000     -34.36710000     -70.28910000
C      -42.74310000     -33.52950000     -70.88850000
C      -42.73610000     -33.63610000     -72.33280000
H      -43.60080000     -34.62600000     -74.14550000
H      -45.01370000     -36.13730000     -70.44540000
H      -42.16890000     -32.74690000     -70.39010000
H      -42.00160000     -32.97930000     -72.81460000
C      -43.80580000     -34.30550000     -68.76240000
H      -43.55810000     -33.35050000     -68.41070000
H      -43.05440000     -34.98440000     -68.39830000
C      -45.14250000     -36.45060000     -73.08870000
H      -44.70260000     -36.90840000     -73.97980000
H      -45.34590000     -37.28630000     -72.40920000
S      -45.38360000     -34.93040000     -68.20400000
S      -46.62540000     -35.68270000     -73.74000000
C      -46.54880000     -33.46270000     -67.86230000
H      -47.32950000     -34.00940000     -67.20590000
H      -46.09800000     -32.72110000     -67.21760000
C      -47.51010000     -35.03460000     -72.17030000
H      -46.67340000     -34.94990000     -71.37870000
H      -48.37560000     -35.66600000     -71.85090000
C      -47.94640000     -33.56230000     -72.52380000
H      -48.48730000     -33.46510000     -73.44110000
H      -48.57200000     -33.24440000     -71.70310000
C      -47.21840000     -32.89420000     -69.11640000
H      -48.01400000     -32.31590000     -68.71080000
H      -47.59340000     -33.72600000     -69.62330000
C      -46.31010000     -32.04170000     -69.98720000
C      -45.38880000     -31.27210000     -69.33760000
C      -46.13200000     -32.00160000     -71.42490000
H      -45.48060000     -31.17900000     -68.29960000
C      -45.05440000     -31.15350000     -71.80530000
C      -46.70980000     -32.65480000     -72.61110000
C      -46.09870000     -32.25760000     -73.81390000
S      -44.34230000     -30.25330000     -70.29870000
S      -44.82580000     -31.08670000     -73.54260000
H      -46.49860000     -32.32850000     -74.84010000
