40
Properties=species:S:1:pos:R:3 #=T CELL(abcABC):=T 1.889726e+02=T 90.00000=T Traj:=T positionsangstrom=T Step:=T 0=T Bead:=T pbc="F F F"
C      -42.46190000     -33.12970000     -70.65290000
C      -42.63520000     -32.26120000     -71.76300000
C      -43.62810000     -31.17480000     -71.72780000
C      -44.41550000     -31.10100000     -70.56150000
C      -44.14610000     -31.94890000     -69.45760000
C      -43.17690000     -32.93890000     -69.41760000
H      -41.77770000     -33.95050000     -70.70670000
H      -43.90750000     -30.50480000     -72.52970000
H      -44.75740000     -31.90870000     -68.55610000
H      -43.19590000     -33.67760000     -68.63240000
C      -45.40510000     -29.97010000     -70.39370000
H      -45.15770000     -29.16620000     -71.06930000
H      -45.52370000     -29.71140000     -69.26840000
C      -41.99260000     -32.63630000     -73.04350000
H      -42.25250000     -31.97970000     -73.87100000
H      -40.87050000     -32.78530000     -72.98630000
S      -47.27930000     -30.30940000     -70.85780000
S      -42.62730000     -34.37210000     -73.52830000
C      -47.12830000     -31.19640000     -72.45900000
H      -47.37530000     -30.47440000     -73.28880000
H      -46.06670000     -31.41580000     -72.52440000
C      -44.35420000     -33.83550000     -73.98130000
H      -44.33660000     -33.48700000     -74.97380000
H      -44.54840000     -32.93280000     -73.35160000
C      -45.44460000     -34.87950000     -73.82980000
H      -46.39950000     -34.42300000     -74.27810000
H      -45.20680000     -35.84560000     -74.23840000
C      -47.86260000     -32.52170000     -72.45690000
H      -47.92860000     -33.03000000     -73.43800000
H      -48.89880000     -32.33480000     -72.28740000
C      -47.41270000     -33.46070000     -71.30320000
C      -48.04470000     -33.34360000     -70.08320000
C      -46.46410000     -34.54870000     -71.32260000
H      -49.00490000     -32.78350000     -69.95650000
C      -46.44960000     -35.28670000     -70.10470000
C      -45.59880000     -35.17150000     -72.31720000
C      -44.92680000     -36.22610000     -71.78530000
S      -47.59030000     -34.62410000     -68.92300000
S      -45.34770000     -36.60850000     -70.18830000
H      -44.34590000     -36.93670000     -72.38220000
