40
Properties=species:S:1:pos:R:3 #=T CELL(abcABC):=T 1.889726e+02=T 90.00000=T Traj:=T positionsangstrom=T Step:=T 0=T Bead:=T pbc="F F F"
C      -43.49630000     -29.41990000     -72.32520000
C      -43.55990000     -30.74920000     -72.81630000
C      -42.87530000     -31.72310000     -72.09860000
C      -42.43010000     -31.43790000     -70.83020000
C      -42.36540000     -30.16680000     -70.37980000
C      -42.87630000     -29.12950000     -71.14220000
H      -43.98790000     -28.71720000     -72.92150000
H      -42.96720000     -32.78520000     -72.39430000
H      -41.92260000     -29.98970000     -69.42480000
H      -42.66340000     -28.09900000     -70.83900000
C      -41.87340000     -32.43120000     -69.88000000
H      -42.31040000     -32.25870000     -68.93410000
H      -40.82830000     -32.21450000     -69.78810000
C      -44.06750000     -31.06260000     -74.21830000
H      -43.92780000     -30.22310000     -74.80160000
H      -43.53310000     -31.86630000     -74.70340000
S      -41.99850000     -34.16710000     -70.46410000
S      -45.88100000     -31.36040000     -74.58420000
C      -43.78260000     -34.55320000     -70.09530000
H      -43.96480000     -34.88840000     -69.00080000
H      -44.37650000     -33.64930000     -70.14920000
C      -46.82040000     -32.00070000     -73.12320000
H      -47.77380000     -32.39270000     -73.55030000
H      -46.99930000     -31.14080000     -72.51100000
C      -46.11040000     -33.13000000     -72.27620000
H      -45.66630000     -33.87540000     -72.93070000
H      -45.34320000     -32.77440000     -71.62970000
C      -44.30970000     -35.61010000     -71.05630000
H      -43.84400000     -36.57490000     -70.94190000
H      -44.09320000     -35.41410000     -72.07370000
C      -45.77470000     -35.93320000     -70.69940000
C      -46.03810000     -37.12170000     -70.09130000
C      -46.91690000     -35.10630000     -70.77960000
H      -45.33970000     -37.78110000     -69.58950000
C      -48.07660000     -35.65790000     -70.16970000
C      -47.18980000     -33.84530000     -71.44350000
C      -48.40790000     -33.31810000     -71.08970000
S      -47.71340000     -37.17760000     -69.41550000
S      -49.38310000     -34.43190000     -70.17620000
H      -48.74160000     -32.34070000     -71.37940000
