40
Properties=species:S:1:pos:R:3 #=T CELL(abcABC):=T 1.889726e+02=T 90.00000=T Traj:=T positionsangstrom=T Step:=T 0=T Bead:=T pbc="F F F"
C      -43.75180000     -29.69600000     -72.71560000
C      -43.42990000     -30.99330000     -73.10060000
C      -42.76170000     -31.82830000     -72.17240000
C      -42.52360000     -31.35360000     -70.89350000
C      -42.79780000     -30.02760000     -70.52500000
C      -43.44180000     -29.14050000     -71.45840000
H      -44.32080000     -29.04960000     -73.43010000
H      -42.43560000     -32.78770000     -72.50010000
H      -42.42200000     -29.69340000     -69.53340000
H      -43.60700000     -28.12250000     -71.10560000
C      -41.85630000     -32.29380000     -69.84230000
H      -42.35930000     -32.13970000     -68.81260000
H      -40.79770000     -31.95350000     -69.88240000
C      -43.95380000     -31.54430000     -74.42400000
H      -43.64170000     -30.98120000     -75.35510000
H      -43.61530000     -32.55080000     -74.61190000
S      -41.92310000     -34.12990000     -70.09560000
S      -45.84530000     -31.42470000     -74.61850000
C      -43.74360000     -34.48390000     -69.87670000
H      -44.01730000     -34.97220000     -68.97450000
H      -44.25650000     -33.51890000     -69.80300000
C      -46.41030000     -31.61950000     -72.81570000
H      -47.51090000     -31.43560000     -72.90260000
H      -45.98870000     -30.81550000     -72.22930000
C      -45.99580000     -32.92730000     -72.00220000
H      -45.48700000     -33.62520000     -72.71840000
H      -45.23880000     -32.66090000     -71.27000000
C      -44.28060000     -35.51230000     -70.92560000
H      -43.68950000     -36.45480000     -70.81480000
H      -44.18270000     -35.17710000     -71.92970000
C      -45.68670000     -35.90230000     -70.53230000
C      -46.02860000     -37.06270000     -69.86410000
C      -46.83870000     -35.01280000     -70.70500000
H      -45.21250000     -37.80250000     -69.57310000
C      -48.03680000     -35.58440000     -70.27070000
C      -47.10200000     -33.67400000     -71.30800000
C      -48.41210000     -33.26190000     -71.07060000
S      -47.74300000     -37.24260000     -69.57150000
S      -49.45450000     -34.54810000     -70.38260000
H      -48.86030000     -32.31510000     -71.35900000
