40
Properties=species:S:1:pos:R:3 #=T CELL(abcABC):=T 1.889726e+02=T 90.00000=T Traj:=T positionsangstrom=T Step:=T 0=T Bead:=T pbc="F F F"
C      -43.75890000     -29.86560000     -72.66010000
C      -43.51310000     -31.15540000     -73.06210000
C      -42.87870000     -32.01040000     -72.18350000
C      -42.58550000     -31.54830000     -70.85750000
C      -42.73720000     -30.21000000     -70.46900000
C      -43.25490000     -29.32550000     -71.48270000
H      -44.28090000     -29.27150000     -73.35420000
H      -42.64450000     -33.05280000     -72.35710000
H      -42.55880000     -29.89830000     -69.48250000
H      -43.40190000     -28.24910000     -71.28600000
C      -41.76160000     -32.29720000     -69.90550000
H      -41.93270000     -32.00810000     -68.89800000
H      -40.70540000     -32.22350000     -70.28670000
C      -44.10390000     -31.74750000     -74.29910000
H      -43.68470000     -31.39210000     -75.20730000
H      -43.88720000     -32.86260000     -74.25370000
S      -41.93970000     -34.11700000     -69.95800000
S      -45.85910000     -31.33120000     -74.49310000
C      -43.74910000     -34.41060000     -69.68040000
H      -43.98680000     -34.72290000     -68.61000000
H      -44.18530000     -33.51060000     -69.90770000
C      -46.73320000     -31.63030000     -72.94700000
H      -47.79780000     -31.86070000     -73.18960000
H      -46.66360000     -30.72490000     -72.36970000
C      -46.14820000     -32.85420000     -72.18250000
H      -45.59540000     -33.48130000     -72.91710000
H      -45.43590000     -32.41510000     -71.49930000
C      -44.16230000     -35.37090000     -70.78680000
H      -43.48180000     -36.24570000     -70.70440000
H      -44.07640000     -34.89480000     -71.82380000
C      -45.62160000     -35.77010000     -70.59700000
C      -45.94850000     -36.92790000     -69.93190000
C      -46.79990000     -34.91850000     -70.80510000
H      -45.24050000     -37.75960000     -69.69130000
C      -47.93970000     -35.48900000     -70.26010000
C      -47.13650000     -33.76030000     -71.50510000
C      -48.47460000     -33.38590000     -71.38470000
S      -47.67440000     -37.00940000     -69.52870000
S      -49.36910000     -34.57080000     -70.47610000
H      -48.97230000     -32.51580000     -71.79910000
