40
Properties=species:S:1:pos:R:3 #=T CELL(abcABC):=T 1.889726e+02=T 90.00000=T Traj:=T positionsangstrom=T Step:=T 0=T Bead:=T pbc="F F F"
C      -43.62710000     -35.21190000     -67.65930000
C      -44.92420000     -35.03620000     -68.15200000
C      -45.12770000     -35.60050000     -69.39840000
C      -44.11730000     -36.25810000     -70.13550000
C      -42.88680000     -36.35520000     -69.62460000
C      -42.60800000     -35.84190000     -68.37800000
H      -43.35270000     -34.80200000     -66.67090000
H      -46.06400000     -35.54340000     -69.91030000
H      -42.14320000     -37.00600000     -70.04440000
H      -41.65150000     -35.88940000     -67.88990000
C      -44.37150000     -36.84250000     -71.51930000
H      -45.16070000     -37.58080000     -71.50990000
H      -43.39750000     -37.29850000     -71.88930000
C      -45.84450000     -34.21900000     -67.41210000
H      -46.90250000     -34.36020000     -67.81510000
H      -45.76650000     -34.48420000     -66.33770000
S      -44.92940000     -35.43500000     -72.62590000
S      -45.39490000     -32.42410000     -67.47040000
C      -43.30690000     -34.57690000     -72.87780000
H      -42.47530000     -34.93130000     -72.19060000
H      -42.79550000     -34.67550000     -73.83240000
C      -46.36360000     -31.80200000     -68.97120000
H      -46.59800000     -30.78480000     -68.84180000
H      -47.22420000     -32.34750000     -69.06790000
C      -45.49130000     -32.00390000     -70.20640000
H      -44.42030000     -31.66230000     -70.11500000
H      -45.45340000     -33.12260000     -70.46900000
C      -43.34590000     -33.00040000     -72.72210000
H      -42.40740000     -32.53540000     -73.07830000
H      -43.39100000     -32.57230000     -71.66070000
C      -44.60110000     -32.45190000     -73.47230000
C      -44.74500000     -32.67490000     -74.87620000
C      -45.73480000     -31.83780000     -72.90240000
H      -44.08590000     -33.22510000     -75.56360000
C      -46.69580000     -31.48710000     -73.82860000
C      -46.20160000     -31.53110000     -71.52960000
C      -47.40720000     -30.87940000     -71.53080000
S      -46.26650000     -32.00910000     -75.47200000
S      -48.12750000     -30.74380000     -73.18790000
H      -48.07910000     -30.44620000     -70.75860000
