40
Properties=species:S:1:pos:R:3 #=T CELL(abcABC):=T 1.889726e+02=T 90.00000=T Traj:=T positionsangstrom=T Step:=T 0=T Bead:=T pbc="F F F"
C      -46.94350000     -36.91620000     -69.18050000
C      -47.16870000     -35.52880000     -69.27810000
C      -46.20560000     -34.61500000     -68.80920000
C      -44.98650000     -35.05450000     -68.28170000
C      -44.68530000     -36.40720000     -68.44270000
C      -45.66250000     -37.33180000     -68.82160000
H      -47.73550000     -37.61440000     -69.51520000
H      -46.42100000     -33.55180000     -68.80290000
H      -43.70530000     -36.67060000     -68.11630000
H      -45.42560000     -38.38110000     -68.81630000
C      -44.05120000     -34.05910000     -67.62770000
H      -43.55510000     -34.52340000     -66.79730000
H      -44.64730000     -33.19060000     -67.27670000
C      -48.51330000     -35.06350000     -69.81640000
H      -48.76460000     -35.72770000     -70.68840000
H      -49.28470000     -35.26260000     -69.08320000
S      -42.63590000     -33.80620000     -68.81910000
S      -48.88530000     -33.28260000     -70.28610000
C      -43.43850000     -33.59830000     -70.46110000
H      -42.59940000     -33.91310000     -71.14780000
H      -44.23280000     -34.35760000     -70.50820000
C      -48.27050000     -33.05100000     -71.98680000
H      -48.28200000     -32.02600000     -72.33310000
H      -48.88270000     -33.63650000     -72.78790000
C      -46.73790000     -33.47390000     -72.00390000
H      -46.19940000     -33.29060000     -71.14930000
H      -46.60520000     -34.54540000     -72.09890000
C      -43.98610000     -32.15430000     -70.65880000
H      -43.39160000     -31.42580000     -70.02000000
H      -44.97900000     -32.00840000     -70.28000000
C      -43.80310000     -31.76370000     -72.05470000
C      -42.70920000     -31.11950000     -72.51050000
C      -44.78360000     -32.10970000     -73.07510000
H      -41.93530000     -30.79080000     -71.78640000
C      -44.34140000     -31.60360000     -74.26270000
C      -46.01780000     -32.84980000     -73.17090000
C      -46.41110000     -32.92020000     -74.46290000
S      -42.74930000     -30.78510000     -74.24600000
S      -45.49560000     -31.95690000     -75.57030000
H      -47.43360000     -33.26370000     -74.65050000
