40
Properties=species:S:1:pos:R:3 #=T CELL(abcABC):=T 1.889726e+02=T 90.00000=T Traj:=T positionsangstrom=T Step:=T 0=T Bead:=T pbc="F F F"
C      -46.97670000     -36.95240000     -69.34890000
C      -47.37950000     -35.58130000     -69.37460000
C      -46.49600000     -34.65900000     -68.86190000
C      -45.29300000     -34.97820000     -68.23260000
C      -44.98940000     -36.33670000     -68.08730000
C      -45.81680000     -37.31470000     -68.70650000
H      -47.69650000     -37.66330000     -69.76130000
H      -46.86320000     -33.62550000     -68.86460000
H      -43.99540000     -36.68920000     -67.82060000
H      -45.53410000     -38.37640000     -68.64960000
C      -44.23500000     -33.91720000     -67.82160000
H      -44.07430000     -33.82630000     -66.74990000
H      -44.61790000     -32.94480000     -68.11910000
C      -48.74390000     -35.19640000     -69.89930000
H      -49.03040000     -35.73280000     -70.79330000
H      -49.56510000     -35.48180000     -69.16040000
S      -42.72630000     -34.25000000     -68.70480000
S      -49.06440000     -33.38510000     -70.27150000
C      -42.77880000     -33.79410000     -70.53350000
H      -41.81120000     -33.53500000     -70.91530000
H      -43.08810000     -34.62880000     -71.20860000
C      -48.12370000     -33.00570000     -71.89900000
H      -48.42920000     -31.89280000     -72.09330000
H      -48.41020000     -33.74410000     -72.61950000
C      -46.58490000     -33.11070000     -71.80740000
H      -46.25440000     -32.43640000     -70.99640000
H      -46.30390000     -34.10830000     -71.63230000
C      -43.58180000     -32.51500000     -70.72060000
H      -43.09700000     -31.68920000     -70.13730000
H      -44.69160000     -32.48420000     -70.51080000
C      -43.47520000     -31.99720000     -72.17600000
C      -42.38750000     -31.29360000     -72.70840000
C      -44.59560000     -32.06950000     -73.07620000
H      -41.49940000     -31.05700000     -72.08450000
C      -44.23620000     -31.47710000     -74.31530000
C      -45.91970000     -32.60860000     -73.09470000
C      -46.53640000     -32.47080000     -74.36330000
S      -42.70760000     -30.75750000     -74.36530000
S      -45.53300000     -31.60410000     -75.50410000
H      -47.42060000     -33.06070000     -74.70620000
