40
Properties=species:S:1:pos:R:3 #=T CELL(abcABC):=T 1.889726e+02=T 90.00000=T Traj:=T positionsangstrom=T Step:=T 0=T Bead:=T pbc="F F F"
C      -43.61470000     -29.74250000     -72.41410000
C      -43.58990000     -31.04160000     -72.88710000
C      -42.94750000     -31.98030000     -72.08230000
C      -42.32700000     -31.62740000     -70.83550000
C      -42.52060000     -30.32530000     -70.36950000
C      -43.12960000     -29.35230000     -71.14440000
H      -44.01450000     -28.94090000     -73.11600000
H      -42.83910000     -33.01030000     -72.51850000
H      -42.02810000     -29.92690000     -69.46720000
H      -43.27440000     -28.34540000     -70.86200000
C      -41.55540000     -32.64980000     -69.95470000
H      -42.05180000     -32.68630000     -68.99160000
H      -40.47770000     -32.36380000     -69.90260000
C      -44.19180000     -31.28820000     -74.21810000
H      -43.67900000     -30.69370000     -74.94430000
H      -44.01990000     -32.31850000     -74.56020000
S      -41.72500000     -34.39830000     -70.62380000
S      -46.02870000     -30.82110000     -74.37580000
C      -43.54610000     -34.59900000     -70.14750000
H      -43.61300000     -35.05100000     -69.15110000
H      -43.96450000     -33.55280000     -70.05750000
C      -46.84020000     -31.75200000     -73.05020000
H      -47.85730000     -31.54810000     -73.31210000
H      -46.68550000     -31.17180000     -72.10450000
C      -46.35950000     -33.14610000     -72.72080000
H      -46.27410000     -33.76340000     -73.55040000
H      -45.36180000     -33.08550000     -72.31720000
C      -44.24690000     -35.65000000     -70.96450000
H      -43.85030000     -36.69470000     -70.78040000
H      -44.16070000     -35.31680000     -72.06370000
C      -45.68230000     -35.79780000     -70.51760000
C      -46.01350000     -36.86770000     -69.69170000
C      -46.91010000     -35.05770000     -70.84030000
H      -45.33550000     -37.69190000     -69.50470000
C      -48.00310000     -35.51050000     -70.09630000
C      -47.25900000     -33.88120000     -71.68830000
C      -48.54600000     -33.48420000     -71.43760000
S      -47.65920000     -36.85050000     -69.09160000
S      -49.43610000     -34.50320000     -70.29750000
H      -49.11830000     -32.59320000     -71.85340000
