40
Properties=species:S:1:pos:R:3 #=T CELL(abcABC):=T 1.889726e+02=T 90.00000=T Traj:=T positionsangstrom=T Step:=T 0=T Bead:=T pbc="F F F"
C      -47.29220000     -37.00100000     -69.22880000
C      -47.56860000     -35.64680000     -69.39250000
C      -46.54310000     -34.72340000     -68.98540000
C      -45.29460000     -35.09470000     -68.46890000
C      -45.06300000     -36.47310000     -68.32140000
C      -46.05220000     -37.40570000     -68.67430000
H      -47.91170000     -37.72000000     -69.72340000
H      -46.78950000     -33.68160000     -69.10240000
H      -44.12050000     -36.81870000     -67.82440000
H      -45.94570000     -38.44120000     -68.42170000
C      -44.24500000     -34.06300000     -68.00230000
H      -44.14100000     -34.22800000     -66.90760000
H      -44.63540000     -33.04860000     -68.15850000
C      -48.83050000     -35.23980000     -70.08520000
H      -48.83080000     -35.70760000     -71.03520000
H      -49.71460000     -35.57910000     -69.54420000
S      -42.52650000     -34.32280000     -68.74810000
S      -49.06860000     -33.41130000     -70.36800000
C      -42.73790000     -33.85790000     -70.49260000
H      -41.85820000     -34.10820000     -71.05540000
H      -43.59900000     -34.60740000     -70.72830000
C      -48.08250000     -33.25650000     -71.85340000
H      -48.58440000     -32.46260000     -72.44740000
H      -48.27570000     -34.02880000     -72.57640000
C      -46.61130000     -32.88760000     -71.69410000
H      -46.42620000     -32.09020000     -70.92980000
H      -45.99610000     -33.73920000     -71.32250000
C      -43.24690000     -32.35170000     -70.70710000
H      -42.49370000     -31.81810000     -70.13760000
H      -44.18380000     -32.30510000     -70.19660000
C      -43.38200000     -31.92360000     -72.12280000
C      -42.35450000     -31.28750000     -72.76150000
C      -44.51910000     -31.98200000     -72.97570000
H      -41.45460000     -31.13570000     -72.22110000
C      -44.20970000     -31.52530000     -74.26130000
C      -45.91300000     -32.36770000     -72.88740000
C      -46.59280000     -32.10090000     -74.07120000
S      -42.67270000     -30.80030000     -74.38580000
S      -45.61120000     -31.46770000     -75.36480000
H      -47.63420000     -32.35750000     -74.31100000
