40
Properties=species:S:1:pos:R:3 #=T CELL(abcABC):=T 1.889726e+02=T 90.00000=T Traj:=T positionsangstrom=T Step:=T 0=T Bead:=T pbc="F F F"
C      -42.77630000     -29.78010000     -72.69950000
C      -43.03400000     -31.08900000     -73.10100000
C      -42.44550000     -32.14410000     -72.40380000
C      -41.80350000     -31.87870000     -71.18060000
C      -41.68680000     -30.53160000     -70.71230000
C      -42.21410000     -29.51010000     -71.47310000
H      -43.37310000     -29.06620000     -73.20920000
H      -42.55860000     -33.16650000     -72.66600000
H      -41.13410000     -30.33220000     -69.79040000
H      -42.05040000     -28.50510000     -71.16820000
C      -41.32000000     -32.99950000     -70.25420000
H      -41.52690000     -32.63850000     -69.26860000
H      -40.20550000     -33.09980000     -70.28700000
C      -43.81140000     -31.40260000     -74.28340000
H      -43.38770000     -30.89420000     -75.17460000
H      -43.72670000     -32.49790000     -74.48670000
S      -42.02280000     -34.61800000     -70.61960000
S      -45.66710000     -30.94640000     -74.05350000
C      -43.77920000     -34.40410000     -70.10740000
H      -43.81700000     -34.49970000     -68.96620000
H      -44.07550000     -33.42560000     -70.44440000
C      -46.03900000     -31.94070000     -72.52450000
H      -46.74400000     -31.31190000     -71.94640000
H      -45.08120000     -32.16740000     -72.02740000
C      -46.55480000     -33.45390000     -72.82550000
H      -46.96240000     -33.41280000     -73.85850000
H      -45.78450000     -34.17010000     -72.76340000
C      -44.78380000     -35.44530000     -70.68580000
H      -44.38420000     -36.48100000     -70.57880000
H      -44.88650000     -35.34640000     -71.73420000
C      -46.15180000     -35.39330000     -70.05300000
C      -46.36470000     -36.07120000     -68.88430000
C      -47.32860000     -34.78230000     -70.69250000
H      -45.60420000     -36.62880000     -68.27810000
C      -48.45540000     -35.21970000     -70.03730000
C      -47.63010000     -34.02200000     -71.87600000
C      -48.99520000     -33.86100000     -72.11030000
S      -48.17440000     -36.24680000     -68.62750000
S      -49.89230000     -34.62110000     -70.75400000
H      -49.55990000     -33.49850000     -72.97860000
