40
Properties=species:S:1:pos:R:3 #=T CELL(abcABC):=T 1.889726e+02=T 90.00000=T Traj:=T positionsangstrom=T Step:=T 0=T Bead:=T pbc="F F F"
C      -42.49540000     -29.91460000     -72.70840000
C      -42.74120000     -31.27680000     -73.11370000
C      -42.38030000     -32.29980000     -72.21880000
C      -41.76290000     -32.02860000     -70.97770000
C      -41.34950000     -30.73640000     -70.68080000
C      -41.74610000     -29.67450000     -71.55040000
H      -42.92300000     -29.03790000     -73.23600000
H      -42.55660000     -33.35500000     -72.39720000
H      -41.04400000     -30.55690000     -69.68760000
H      -41.53470000     -28.65350000     -71.12490000
C      -41.58560000     -33.05610000     -69.85320000
H      -42.15980000     -32.81100000     -68.93310000
H      -40.45280000     -33.08330000     -69.70660000
C      -43.70010000     -31.62310000     -74.24600000
H      -43.37830000     -31.19590000     -75.19680000
H      -43.80310000     -32.70700000     -74.27950000
S      -42.11260000     -34.80280000     -70.20700000
S      -45.42450000     -30.87400000     -74.08280000
C      -43.96490000     -34.45590000     -70.16360000
H      -44.22880000     -34.07570000     -69.13300000
H      -44.27830000     -33.60490000     -70.74000000
C      -46.17640000     -31.76640000     -72.67430000
H      -47.21930000     -31.30510000     -72.53820000
H      -45.41160000     -31.64930000     -71.88000000
C      -46.41660000     -33.30930000     -72.92360000
H      -46.71090000     -33.49010000     -73.92970000
H      -45.41970000     -33.78990000     -72.88090000
C      -44.84100000     -35.65390000     -70.59300000
H      -44.27450000     -36.57470000     -70.24090000
H      -44.73430000     -35.71970000     -71.65610000
C      -46.29790000     -35.57180000     -70.21740000
C      -46.79910000     -36.45680000     -69.27430000
C      -47.33890000     -34.79290000     -70.77200000
H      -46.11630000     -37.11800000     -68.66490000
C      -48.57590000     -35.10120000     -70.18730000
C      -47.49720000     -33.82560000     -71.88960000
C      -48.81150000     -33.46440000     -72.02750000
S      -48.53950000     -36.26990000     -68.93430000
S      -49.92380000     -34.07230000     -70.79080000
H      -49.13100000     -32.70870000     -72.67090000
