40
Properties=species:S:1:pos:R:3 #=T CELL(abcABC):=T 1.889726e+02=T 90.00000=T Traj:=T positionsangstrom=T Step:=T 0=T Bead:=T pbc="F F F"
C      -42.46620000     -30.08000000     -72.80370000
C      -42.88220000     -31.38020000     -73.02050000
C      -42.47430000     -32.38370000     -72.11050000
C      -41.71390000     -32.02990000     -70.95560000
C      -41.44090000     -30.67810000     -70.74900000
C      -41.72710000     -29.70950000     -71.68230000
H      -42.81320000     -29.35060000     -73.45950000
H      -42.75550000     -33.45150000     -72.20070000
H      -40.78000000     -30.66460000     -69.88030000
H      -41.40830000     -28.72550000     -71.48460000
C      -41.32600000     -33.10300000     -69.94350000
H      -41.56460000     -32.79150000     -68.87340000
H      -40.24360000     -33.10510000     -69.88300000
C      -43.77180000     -31.69550000     -74.22520000
H      -43.33280000     -31.31050000     -75.15800000
H      -43.90190000     -32.75900000     -74.37260000
S      -42.10890000     -34.75030000     -70.37090000
S      -45.47570000     -30.93260000     -74.07430000
C      -43.92480000     -34.41170000     -70.07240000
H      -44.08110000     -34.43050000     -68.98800000
H      -44.20430000     -33.45400000     -70.56170000
C      -46.33740000     -31.73720000     -72.66650000
H      -47.32890000     -31.25690000     -72.69450000
H      -45.94420000     -31.29490000     -71.74360000
C      -46.42470000     -33.30290000     -72.78230000
H      -46.66830000     -33.51940000     -73.83390000
H      -45.53790000     -33.76150000     -72.50310000
C      -44.77900000     -35.59000000     -70.66050000
H      -44.52760000     -36.55280000     -70.32440000
H      -44.71780000     -35.56650000     -71.78690000
C      -46.25830000     -35.50080000     -70.20370000
C      -46.71110000     -36.29990000     -69.17020000
C      -47.32840000     -34.71690000     -70.73780000
H      -46.09160000     -37.06670000     -68.76780000
C      -48.55650000     -35.06700000     -70.15560000
C      -47.52400000     -33.71500000     -71.77790000
C      -48.84440000     -33.35770000     -71.88950000
S      -48.43230000     -36.25650000     -68.95430000
S      -49.98530000     -34.16100000     -70.77780000
H      -49.29050000     -32.74800000     -72.75240000
