40
Properties=species:S:1:pos:R:3 #=T CELL(abcABC):=T 1.889726e+02=T 90.00000=T Traj:=T positionsangstrom=T Step:=T 0=T Bead:=T pbc="F F F"
C      -42.80740000     -29.85920000     -72.75090000
C      -43.00800000     -31.15970000     -73.11500000
C      -42.57390000     -32.25290000     -72.33370000
C      -41.81560000     -31.92640000     -71.16030000
C      -41.61730000     -30.60530000     -70.84290000
C      -42.06060000     -29.51930000     -71.62570000
H      -43.05110000     -29.13570000     -73.49780000
H      -42.89150000     -33.27100000     -72.55080000
H      -41.12100000     -30.42180000     -69.89930000
H      -42.08820000     -28.55450000     -71.23620000
C      -41.26100000     -33.02940000     -70.29570000
H      -41.25180000     -32.80950000     -69.20100000
H      -40.18730000     -33.22250000     -70.51050000
C      -43.85240000     -31.47550000     -74.23260000
H      -43.68190000     -30.91190000     -75.10050000
H      -43.84150000     -32.52370000     -74.50760000
S      -42.13940000     -34.64200000     -70.53010000
S      -45.62450000     -30.99570000     -73.95340000
C      -43.87050000     -34.22800000     -70.04260000
H      -43.87420000     -34.18450000     -68.94870000
H      -44.22520000     -33.24560000     -70.37870000
C      -46.17170000     -31.96630000     -72.48700000
H      -46.97260000     -31.48610000     -72.00870000
H      -45.43050000     -31.92370000     -71.69310000
C      -46.58680000     -33.43010000     -72.83980000
H      -46.97160000     -33.55380000     -73.91940000
H      -45.63510000     -33.94360000     -72.93020000
C      -44.67920000     -35.42630000     -70.58500000
H      -44.19050000     -36.37130000     -70.37680000
H      -44.69820000     -35.33430000     -71.70250000
C      -46.09470000     -35.43490000     -70.04630000
C      -46.50310000     -36.31180000     -69.09720000
C      -47.24970000     -34.84630000     -70.78030000
H      -45.83740000     -36.90310000     -68.48130000
C      -48.42840000     -35.15350000     -70.03960000
C      -47.57920000     -33.91740000     -71.84950000
C      -48.90810000     -33.64700000     -71.97670000
S      -48.14890000     -36.19750000     -68.66870000
S      -49.86770000     -34.50880000     -70.82800000
H      -49.42280000     -33.05110000     -72.70740000
