40
Properties=species:S:1:pos:R:3 #=T CELL(abcABC):=T 1.889726e+02=T 90.00000=T Traj:=T positionsangstrom=T Step:=T 0=T Bead:=T pbc="F F F"
C      -47.38520000     -37.16010000     -69.53750000
C      -47.52880000     -35.74990000     -69.52540000
C      -46.60270000     -34.98360000     -68.92390000
C      -45.35290000     -35.54810000     -68.44410000
C      -45.22180000     -36.97050000     -68.42970000
C      -46.26600000     -37.75570000     -68.95860000
H      -48.18380000     -37.79920000     -69.89640000
H      -46.74260000     -33.90780000     -68.71120000
H      -44.29330000     -37.48250000     -68.15800000
H      -46.16480000     -38.76250000     -69.08750000
C      -44.28510000     -34.69790000     -67.73100000
H      -43.84540000     -35.13330000     -66.83240000
H      -44.59060000     -33.71670000     -67.43790000
C      -48.79200000     -35.14600000     -70.08990000
H      -49.03350000     -35.59520000     -71.07350000
H      -49.62900000     -35.48550000     -69.43900000
S      -42.74570000     -34.64190000     -68.83410000
S      -48.87600000     -33.28910000     -70.35080000
C      -43.22500000     -33.95950000     -70.49570000
H      -42.63700000     -34.15040000     -71.32570000
H      -44.29000000     -34.30980000     -70.67250000
C      -48.01030000     -33.19300000     -71.93570000
H      -48.52240000     -32.46840000     -72.56080000
H      -47.86530000     -34.17300000     -72.21740000
C      -46.66390000     -32.43320000     -71.70490000
H      -46.87300000     -31.55790000     -71.04590000
H      -45.95960000     -33.11450000     -71.19480000
C      -43.40260000     -32.40090000     -70.57730000
H      -42.67450000     -31.90260000     -70.00630000
H      -44.35460000     -32.06720000     -70.19640000
C      -43.38060000     -31.85760000     -72.04560000
C      -42.21560000     -31.50270000     -72.64080000
C      -44.51090000     -31.80310000     -73.01610000
H      -41.22550000     -31.43670000     -72.06050000
C      -44.11160000     -31.24030000     -74.22910000
C      -45.96940000     -31.94410000     -72.94160000
C      -46.55470000     -31.47660000     -74.12100000
S      -42.39540000     -30.94560000     -74.28720000
S      -45.45010000     -30.87240000     -75.26980000
H      -47.61170000     -31.30510000     -74.38210000
