40
Properties=species:S:1:pos:R:3 #=T CELL(abcABC):=T 1.889726e+02=T 90.00000=T Traj:=T positionsangstrom=T Step:=T 0=T Bead:=T pbc="F F F"
C      -42.87480000     -29.65180000     -72.46380000
C      -43.09800000     -30.90970000     -73.04580000
C      -42.50260000     -32.03960000     -72.39620000
C      -41.86640000     -31.89290000     -71.12610000
C      -41.59290000     -30.56300000     -70.64960000
C      -42.12550000     -29.47570000     -71.29940000
H      -43.45380000     -28.85240000     -72.90660000
H      -42.61150000     -33.08620000     -72.75640000
H      -40.82960000     -30.49110000     -69.87700000
H      -42.10970000     -28.43270000     -70.89680000
C      -41.22550000     -33.06230000     -70.40840000
H      -41.06360000     -32.87430000     -69.28330000
H      -40.23920000     -33.31640000     -70.87960000
C      -43.99250000     -31.01350000     -74.25290000
H      -43.67500000     -30.33250000     -74.99780000
H      -43.83460000     -32.03760000     -74.63080000
S      -42.07940000     -34.62300000     -70.64480000
S      -45.84850000     -30.96210000     -74.05400000
C      -43.79390000     -34.38060000     -69.96700000
H      -43.84420000     -34.58250000     -68.84350000
H      -44.22490000     -33.40770000     -70.14420000
C      -46.15200000     -32.11410000     -72.56720000
H      -47.00530000     -31.67000000     -72.01810000
H      -45.24560000     -32.11780000     -72.02300000
C      -46.50970000     -33.61490000     -72.93250000
H      -46.96060000     -33.71580000     -73.92970000
H      -45.48730000     -34.08170000     -72.84440000
C      -44.68220000     -35.40630000     -70.68610000
H      -44.05460000     -36.32630000     -70.74650000
H      -44.71870000     -35.12110000     -71.74110000
C      -46.04880000     -35.56890000     -70.14660000
C      -46.35080000     -36.10820000     -68.92740000
C      -47.23890000     -34.94360000     -70.78270000
H      -45.58260000     -36.63260000     -68.33970000
C      -48.39730000     -35.19210000     -70.02570000
C      -47.54760000     -34.21390000     -72.02730000
C      -48.87020000     -33.99220000     -72.16200000
S      -48.14100000     -36.24740000     -68.61860000
S      -49.81930000     -34.54100000     -70.74680000
H      -49.36860000     -33.38120000     -72.91020000
