40
Properties=species:S:1:pos:R:3 #=T CELL(abcABC):=T 1.889726e+02=T 90.00000=T Traj:=T positionsangstrom=T Step:=T 0=T Bead:=T pbc="F F F"
C      -47.79320000     -36.53800000     -70.74350000
C      -47.90280000     -35.32660000     -70.07900000
C      -46.91030000     -34.93740000     -69.14530000
C      -45.70790000     -35.60710000     -69.06260000
C      -45.54150000     -36.79220000     -69.76910000
C      -46.59190000     -37.24500000     -70.59500000
H      -48.62310000     -36.85560000     -71.39820000
H      -47.14660000     -33.96160000     -68.68060000
H      -44.50300000     -37.35910000     -69.63080000
H      -46.44350000     -38.11360000     -71.13780000
C      -44.64060000     -35.24860000     -68.06400000
H      -44.60880000     -36.02010000     -67.25110000
H      -44.81420000     -34.35140000     -67.41870000
C      -49.17140000     -34.61320000     -70.02430000
H      -49.85370000     -34.93110000     -70.81460000
H      -49.60840000     -34.86030000     -69.12860000
S      -42.94110000     -35.09010000     -68.89090000
S      -49.01930000     -32.80850000     -70.12150000
C      -43.19220000     -34.03640000     -70.37880000
H      -42.28040000     -34.39660000     -70.97090000
H      -44.07780000     -34.53700000     -70.92530000
C      -48.05180000     -32.48300000     -71.65920000
H      -48.45790000     -31.57270000     -72.06680000
H      -48.31640000     -33.26460000     -72.39610000
C      -46.50340000     -32.59800000     -71.39940000
H      -46.22400000     -31.90810000     -70.54770000
H      -46.08030000     -33.56330000     -71.10170000
C      -43.19740000     -32.54850000     -70.22680000
H      -42.26240000     -32.22850000     -69.68460000
H      -44.11070000     -32.15240000     -69.85000000
C      -43.17910000     -31.91630000     -71.58700000
C      -42.01690000     -31.42870000     -72.11690000
C      -44.21130000     -31.88880000     -72.56400000
H      -41.10270000     -31.12080000     -71.50070000
C      -43.78220000     -31.44440000     -73.83140000
C      -45.63320000     -32.13860000     -72.56350000
C      -46.22950000     -31.90720000     -73.76620000
S      -42.16350000     -30.98680000     -73.83040000
S      -45.01110000     -31.31690000     -74.99320000
H      -47.28200000     -32.15760000     -74.06280000
