40
Properties=species:S:1:pos:R:3 #=T CELL(abcABC):=T 1.889726e+02=T 90.00000=T Traj:=T positionsangstrom=T Step:=T 0=T Bead:=T pbc="F F F"
C      -43.50430000     -30.15190000     -71.83780000
C      -43.26880000     -31.36490000     -72.53020000
C      -42.45810000     -32.37160000     -71.92990000
C      -42.00980000     -32.16750000     -70.61230000
C      -42.33210000     -30.98840000     -69.87880000
C      -43.08050000     -29.99990000     -70.48420000
H      -44.17160000     -29.42760000     -72.24390000
H      -42.10400000     -33.25020000     -72.47260000
H      -41.98260000     -30.79490000     -68.84250000
H      -43.56110000     -29.10800000     -69.87570000
C      -41.15980000     -33.18450000     -69.89900000
H      -40.91280000     -32.88300000     -68.90200000
H      -40.23830000     -33.36870000     -70.52270000
C      -43.77930000     -31.60170000     -73.98560000
H      -43.01080000     -31.21680000     -74.68540000
H      -43.79940000     -32.67960000     -74.05220000
S      -41.99910000     -34.86510000     -69.97380000
S      -45.39800000     -30.94090000     -74.51340000
C      -43.81840000     -34.55590000     -69.84590000
H      -44.13660000     -35.07000000     -68.93570000
H      -44.04970000     -33.46750000     -69.77830000
C      -46.60020000     -31.31940000     -73.20980000
H      -47.55490000     -31.46430000     -73.75470000
H      -46.74750000     -30.49360000     -72.48510000
C      -46.23800000     -32.63080000     -72.45770000
H      -45.87740000     -33.27160000     -73.21530000
H      -45.41150000     -32.49590000     -71.79910000
C      -44.54070000     -35.22630000     -71.10000000
H      -44.10900000     -36.24480000     -71.34700000
H      -44.46120000     -34.50750000     -71.87960000
C      -45.99310000     -35.42390000     -70.77190000
C      -46.31920000     -36.54590000     -70.04690000
C      -47.16090000     -34.62530000     -71.15000000
H      -45.73440000     -37.31690000     -69.66220000
C      -48.29990000     -35.17970000     -70.58230000
C      -47.36760000     -33.35260000     -71.81390000
C      -48.73530000     -33.02680000     -71.72430000
S      -48.04860000     -36.62980000     -69.70100000
S      -49.68150000     -34.13500000     -70.72190000
H      -49.24900000     -32.20290000     -72.31260000
