40
Properties=species:S:1:pos:R:3 #=T CELL(abcABC):=T 1.889726e+02=T 90.00000=T Traj:=T positionsangstrom=T Step:=T 0=T Bead:=T pbc="F F F"
C      -47.75170000     -36.52120000     -70.84790000
C      -47.86300000     -35.33030000     -70.13140000
C      -46.88350000     -34.91390000     -69.22250000
C      -45.77580000     -35.76530000     -68.93580000
C      -45.64600000     -36.97340000     -69.66520000
C      -46.62080000     -37.29500000     -70.62990000
H      -48.41130000     -36.83660000     -71.66590000
H      -46.99380000     -33.90110000     -68.82520000
H      -44.84390000     -37.55330000     -69.59760000
H      -46.42980000     -38.18520000     -71.23620000
C      -44.60550000     -35.24330000     -68.04390000
H      -44.59330000     -35.68010000     -67.07550000
H      -44.71660000     -34.16930000     -67.82200000
C      -49.12190000     -34.40440000     -70.25230000
H      -49.56720000     -34.63960000     -71.23130000
H      -49.79750000     -34.67260000     -69.50020000
S      -42.93420000     -35.38420000     -68.91150000
S      -48.93520000     -32.61160000     -70.11360000
C      -43.29960000     -34.30360000     -70.39740000
H      -42.70930000     -34.65800000     -71.26170000
H      -44.43330000     -34.51590000     -70.72580000
C      -47.96710000     -32.12930000     -71.54340000
H      -47.79000000     -31.04540000     -71.46990000
H      -48.48530000     -32.28580000     -72.45630000
C      -46.55970000     -32.68160000     -71.52890000
H      -46.07990000     -32.46480000     -70.52880000
H      -46.62280000     -33.78940000     -71.66490000
C      -43.32190000     -32.73350000     -70.20220000
H      -42.45800000     -32.33170000     -69.64770000
H      -44.29510000     -32.64540000     -69.76550000
C      -43.23690000     -32.14630000     -71.57710000
C      -42.01950000     -31.57130000     -72.03980000
C      -44.25680000     -31.94150000     -72.59520000
H      -41.12570000     -31.45740000     -71.49090000
C      -43.75870000     -31.40290000     -73.75470000
C      -45.72220000     -32.15510000     -72.66750000
C      -46.26990000     -31.66000000     -73.81080000
S      -42.09930000     -30.92510000     -73.70250000
S      -44.97980000     -31.13410000     -74.96490000
H      -47.32620000     -31.56200000     -73.95620000
