40
Properties=species:S:1:pos:R:3 #=T CELL(abcABC):=T 1.889726e+02=T 90.00000=T Traj:=T positionsangstrom=T Step:=T 0=T Bead:=T pbc="F F F"
C      -43.99410000     -36.40590000     -70.10530000
C      -44.87340000     -36.56640000     -71.19380000
C      -46.23660000     -36.54670000     -71.07620000
C      -46.83050000     -36.17470000     -69.84810000
C      -45.98990000     -36.05850000     -68.73230000
C      -44.58810000     -36.12070000     -68.88560000
H      -42.91550000     -36.45930000     -70.25910000
H      -46.77970000     -36.75230000     -72.00020000
H      -46.49160000     -35.87350000     -67.78220000
H      -43.96190000     -35.93610000     -68.02680000
C      -48.33620000     -36.07680000     -69.95910000
H      -48.78270000     -36.37970000     -69.02650000
H      -48.60240000     -36.95550000     -70.61530000
C      -44.22460000     -36.80910000     -72.50530000
H      -43.21860000     -37.38120000     -72.37580000
H      -44.91610000     -37.21760000     -73.23150000
S      -48.83470000     -34.37050000     -70.55180000
S      -43.65680000     -35.20130000     -73.34090000
C      -47.46600000     -33.23440000     -70.25340000
H      -47.67110000     -32.89280000     -69.19450000
H      -46.53620000     -33.83590000     -70.39050000
C      -45.28720000     -34.29470000     -73.66730000
H      -45.83510000     -34.38250000     -72.71090000
H      -45.69140000     -34.84580000     -74.52840000
C      -45.28920000     -32.79930000     -73.93890000
H      -44.93670000     -32.56460000     -74.96060000
H      -46.31460000     -32.48810000     -74.00330000
C      -47.52040000     -31.92100000     -71.01470000
H      -48.19840000     -31.26750000     -70.59110000
H      -47.77590000     -32.06180000     -72.13080000
C      -46.16700000     -31.25670000     -70.85790000
C      -45.89820000     -30.46320000     -69.75740000
C      -45.02620000     -31.29100000     -71.74410000
H      -46.66220000     -30.45820000     -68.96560000
C      -43.99480000     -30.43790000     -71.28470000
C      -44.54810000     -31.87960000     -73.01130000
C      -43.31190000     -31.43900000     -73.37940000
S      -44.27020000     -29.74900000     -69.72090000
S      -42.55470000     -30.28330000     -72.34200000
H      -42.76760000     -31.78800000     -74.23960000
