40
Properties=species:S:1:pos:R:3 #=T CELL(abcABC):=T 1.889726e+02=T 90.00000=T Traj:=T positionsangstrom=T Step:=T 0=T Bead:=T pbc="F F F"
C      -47.79560000     -36.36830000     -70.82520000
C      -47.88980000     -35.22910000     -69.99570000
C      -46.92890000     -35.03030000     -68.98660000
C      -45.79730000     -35.88920000     -68.86570000
C      -45.64140000     -36.98820000     -69.82950000
C      -46.67120000     -37.14910000     -70.77420000
H      -48.61330000     -36.62180000     -71.50310000
H      -47.02500000     -34.24000000     -68.23680000
H      -44.81730000     -37.64180000     -69.83770000
H      -46.61930000     -38.01520000     -71.45190000
C      -44.65470000     -35.53480000     -67.96760000
H      -44.47780000     -36.30490000     -67.15710000
H      -44.82760000     -34.57940000     -67.50870000
C      -49.15770000     -34.47820000     -70.14910000
H      -49.70050000     -34.65810000     -71.11290000
H      -49.94770000     -34.82690000     -69.41190000
S      -43.07290000     -35.25030000     -68.81870000
S      -48.93180000     -32.59790000     -69.96770000
C      -43.39080000     -34.59220000     -70.48950000
H      -42.57800000     -34.92000000     -70.96200000
H      -44.29070000     -34.96190000     -70.96730000
C      -47.92960000     -32.19770000     -71.60880000
H      -47.87280000     -31.09340000     -71.72140000
H      -48.55070000     -32.68050000     -72.41950000
C      -46.54760000     -32.71790000     -71.63630000
H      -46.04820000     -32.54090000     -70.67280000
H      -46.59700000     -33.76680000     -71.77210000
C      -43.30080000     -33.04090000     -70.45930000
H      -42.27380000     -32.88760000     -70.00510000
H      -44.01260000     -32.56520000     -69.83180000
C      -43.19830000     -32.24230000     -71.72570000
C      -41.91410000     -31.76850000     -72.19050000
C      -44.25170000     -31.92240000     -72.64740000
H      -40.99930000     -31.70470000     -71.69810000
C      -43.74260000     -31.17380000     -73.69090000
C      -45.68280000     -32.12480000     -72.75580000
C      -46.12620000     -31.65130000     -73.95990000
S      -42.01580000     -30.92630000     -73.71450000
S      -44.95830000     -30.82780000     -74.90450000
H      -47.17370000     -31.73320000     -74.29800000
