40
Properties=species:S:1:pos:R:3 #=T CELL(abcABC):=T 1.889726e+02=T 90.00000=T Traj:=T positionsangstrom=T Step:=T 0=T Bead:=T pbc="F F F"
C      -47.57250000     -36.47560000     -70.72120000
C      -47.83340000     -35.37850000     -69.84900000
C      -46.82250000     -35.01500000     -68.90080000
C      -45.56310000     -35.62110000     -68.86350000
C      -45.33410000     -36.72510000     -69.65820000
C      -46.33690000     -37.17700000     -70.57640000
H      -48.13230000     -36.65790000     -71.64000000
H      -47.09100000     -34.18060000     -68.25280000
H      -44.47410000     -37.29420000     -69.60880000
H      -46.24530000     -38.14460000     -71.10980000
C      -44.49090000     -35.22390000     -67.85820000
H      -44.26830000     -36.03410000     -67.19240000
H      -44.88940000     -34.46700000     -67.26080000
C      -49.19550000     -34.63360000     -69.93710000
H      -50.05870000     -35.05050000     -70.56650000
H      -49.52240000     -34.52750000     -68.85500000
S      -42.83870000     -34.78110000     -68.57770000
S      -49.04310000     -32.85720000     -70.35350000
C      -43.15070000     -34.18240000     -70.31030000
H      -42.23220000     -34.35250000     -70.94170000
H      -43.93060000     -34.73960000     -70.81820000
C      -48.13200000     -32.85640000     -71.88100000
H      -48.46830000     -32.01170000     -72.43120000
H      -48.44860000     -33.69670000     -72.59770000
C      -46.63450000     -32.93090000     -71.77770000
H      -46.37620000     -32.34360000     -70.89320000
H      -46.28730000     -33.92750000     -71.52210000
C      -43.50390000     -32.68160000     -70.29640000
H      -42.79730000     -32.20270000     -69.69510000
H      -44.57140000     -32.68490000     -69.94020000
C      -43.31360000     -32.11850000     -71.64480000
C      -42.11580000     -31.55210000     -72.08050000
C      -44.34310000     -31.98890000     -72.65060000
H      -41.33160000     -31.48860000     -71.37820000
C      -43.89810000     -31.33130000     -73.76080000
C      -45.78880000     -32.27050000     -72.86710000
C      -46.29910000     -31.89600000     -74.09600000
S      -42.17770000     -30.91580000     -73.72800000
S      -45.03090000     -31.06160000     -75.09790000
H      -47.23750000     -31.99670000     -74.54340000
