40
Properties=species:S:1:pos:R:3 #=T CELL(abcABC):=T 1.889726e+02=T 90.00000=T Traj:=T positionsangstrom=T Step:=T 0=T Bead:=T pbc="F F F"
C      -43.58090000     -30.12180000     -71.90510000
C      -43.23660000     -31.32010000     -72.57120000
C      -42.47330000     -32.31000000     -71.89000000
C      -42.17770000     -32.14570000     -70.50740000
C      -42.61790000     -30.95370000     -69.82850000
C      -43.27180000     -29.97340000     -70.55270000
H      -44.14020000     -29.35760000     -72.49760000
H      -42.32840000     -33.22400000     -72.41320000
H      -42.53930000     -30.79800000     -68.75020000
H      -43.47120000     -29.04510000     -70.09470000
C      -41.24820000     -33.14180000     -69.77840000
H      -41.18400000     -32.96900000     -68.73640000
H      -40.20360000     -33.16330000     -70.10650000
C      -43.72140000     -31.50620000     -73.97370000
H      -43.13850000     -30.87910000     -74.64010000
H      -43.71190000     -32.49190000     -74.39150000
S      -41.86850000     -34.89940000     -70.10890000
S      -45.39310000     -30.70000000     -74.41350000
C      -43.68570000     -34.87690000     -69.68000000
H      -43.81670000     -35.38380000     -68.71890000
H      -43.94030000     -33.84110000     -69.48600000
C      -46.48620000     -32.08210000     -73.85840000
H      -46.46890000     -32.93980000     -74.56870000
H      -47.51210000     -31.73790000     -73.85230000
C      -46.16180000     -32.61290000     -72.41650000
H      -45.23660000     -33.15390000     -72.46490000
H      -45.98770000     -31.77470000     -71.78180000
C      -44.55400000     -35.45230000     -70.74970000
H      -44.21010000     -36.41430000     -70.99080000
H      -44.31530000     -34.86860000     -71.68480000
C      -46.04290000     -35.51160000     -70.54100000
C      -46.48570000     -36.60800000     -69.92980000
C      -47.03810000     -34.62090000     -70.94640000
H      -45.96150000     -37.51350000     -69.53290000
C      -48.28480000     -35.00590000     -70.45350000
C      -47.23850000     -33.46160000     -71.80710000
C      -48.49570000     -32.97190000     -71.82980000
S      -48.23610000     -36.65910000     -69.77930000
S      -49.58230000     -33.87560000     -70.83880000
H      -48.83830000     -32.16680000     -72.36730000
