40
Properties=species:S:1:pos:R:3 #=T CELL(abcABC):=T 1.889726e+02=T 90.00000=T Traj:=T positionsangstrom=T Step:=T 0=T Bead:=T pbc="F F F"
C      -43.77220000     -30.14970000     -71.81010000
C      -43.32590000     -31.28220000     -72.52100000
C      -42.62830000     -32.30850000     -71.94700000
C      -42.10680000     -32.06420000     -70.64070000
C      -42.40480000     -30.89190000     -69.94010000
C      -43.23980000     -29.95860000     -70.53830000
H      -44.40650000     -29.43220000     -72.29870000
H      -42.56960000     -33.29950000     -72.48610000
H      -41.96410000     -30.59130000     -68.97620000
H      -43.50590000     -29.00600000     -69.90230000
C      -41.25050000     -33.18280000     -69.94210000
H      -41.12990000     -32.80950000     -68.87180000
H      -40.26900000     -33.38590000     -70.30360000
C      -43.70840000     -31.53350000     -73.93170000
H      -42.98020000     -31.22160000     -74.68630000
H      -43.77330000     -32.64110000     -74.02760000
S      -41.81880000     -34.92520000     -69.94070000
S      -45.33250000     -30.81310000     -74.47440000
C      -43.68580000     -34.85750000     -69.68970000
H      -43.87120000     -35.56330000     -68.90610000
H      -44.06710000     -33.88720000     -69.35850000
C      -46.68570000     -31.77270000     -73.58840000
H      -47.31140000     -32.28840000     -74.29800000
H      -47.27400000     -30.95490000     -73.15070000
C      -46.13540000     -32.69660000     -72.50820000
H      -45.56080000     -33.59540000     -72.94970000
H      -45.42690000     -32.16950000     -71.82540000
C      -44.54650000     -35.26390000     -70.91380000
H      -44.08350000     -36.13220000     -71.39100000
H      -44.50580000     -34.39000000     -71.65330000
C      -45.99920000     -35.54340000     -70.63780000
C      -46.45580000     -36.68440000     -70.07020000
C      -47.09150000     -34.58990000     -70.93550000
H      -45.98250000     -37.59630000     -69.70350000
C      -48.30370000     -35.09480000     -70.51430000
C      -47.23180000     -33.29220000     -71.66850000
C      -48.52340000     -32.88100000     -71.59570000
S      -48.18260000     -36.60510000     -69.76370000
S      -49.61770000     -34.05040000     -70.90300000
H      -48.89980000     -31.98790000     -72.07900000
