40
Properties=species:S:1:pos:R:3 #=T CELL(abcABC):=T 1.889726e+02=T 90.00000=T Traj:=T positionsangstrom=T Step:=T 0=T Bead:=T pbc="F F F"
C      -43.25850000     -29.60960000     -71.63640000
C      -43.05340000     -30.78980000     -72.38220000
C      -42.49900000     -31.95970000     -71.78530000
C      -42.19130000     -31.93730000     -70.41700000
C      -42.49750000     -30.77130000     -69.64650000
C      -42.95570000     -29.63770000     -70.24540000
H      -43.73880000     -28.72590000     -72.07070000
H      -42.14190000     -32.84220000     -72.36740000
H      -42.30920000     -30.85070000     -68.55560000
H      -43.22210000     -28.75140000     -69.67330000
C      -41.41830000     -33.10850000     -69.90390000
H      -41.44530000     -33.25300000     -68.87380000
H      -40.33080000     -33.09140000     -70.14190000
C      -43.32950000     -30.84720000     -73.86150000
H      -43.35950000     -29.90530000     -74.32320000
H      -42.70680000     -31.53550000     -74.49260000
S      -42.09420000     -34.66030000     -70.70180000
S      -45.05200000     -31.38200000     -74.31110000
C      -43.87030000     -34.64020000     -70.20820000
H      -43.95910000     -34.78890000     -69.11030000
H      -44.12710000     -33.60200000     -70.48910000
C      -45.34240000     -32.85410000     -73.28150000
H      -44.33200000     -33.12430000     -72.93250000
H      -45.83380000     -33.63200000     -73.87450000
C      -46.21900000     -32.52590000     -72.03940000
H      -45.59270000     -32.55060000     -71.13770000
H      -46.66380000     -31.56640000     -72.15970000
C      -44.72200000     -35.65490000     -71.00400000
H      -44.40000000     -36.70660000     -70.88400000
H      -44.59510000     -35.49820000     -72.07310000
C      -46.21570000     -35.63340000     -70.57540000
C      -46.69910000     -36.75960000     -69.92040000
C      -47.31560000     -34.70580000     -70.96100000
H      -46.05730000     -37.50480000     -69.63520000
C      -48.54300000     -35.15660000     -70.48760000
C      -47.40940000     -33.47580000     -71.74390000
C      -48.68960000     -32.98830000     -71.85810000
S      -48.41190000     -36.69870000     -69.65800000
S      -49.83270000     -34.05090000     -70.99950000
H      -49.11350000     -32.17900000     -72.45740000
