40
Properties=species:S:1:pos:R:3 #=T CELL(abcABC):=T 1.889726e+02=T 90.00000=T Traj:=T positionsangstrom=T Step:=T 0=T Bead:=T pbc="F F F"
C      -48.89220000     -36.43950000     -71.65360000
C      -48.20060000     -35.65140000     -70.66810000
C      -46.87870000     -35.96380000     -70.29820000
C      -46.16070000     -36.99190000     -70.92840000
C      -46.92080000     -37.76000000     -71.86710000
C      -48.28110000     -37.58980000     -72.11470000
H      -49.86870000     -36.20070000     -71.99990000
H      -46.39050000     -35.35730000     -69.53080000
H      -46.37470000     -38.64080000     -72.26960000
H      -48.76640000     -38.15600000     -72.91100000
C      -44.70230000     -37.17010000     -70.60170000
H      -44.65800000     -38.28620000     -70.50450000
H      -44.34990000     -36.82990000     -69.59660000
C      -48.79820000     -34.36410000     -70.03120000
H      -49.88850000     -34.49680000     -69.79050000
H      -48.31570000     -34.11030000     -69.02410000
S      -43.47590000     -36.57000000     -71.82990000
S      -48.85330000     -33.04080000     -71.32250000
C      -43.85240000     -34.80280000     -72.09230000
H      -43.12060000     -34.68060000     -72.89260000
H      -44.94450000     -34.57260000     -72.41700000
C      -47.15550000     -32.58700000     -71.54120000
H      -47.20580000     -31.93880000     -72.49630000
H      -46.62570000     -33.47340000     -71.90950000
C      -46.33900000     -31.90340000     -70.39750000
H      -47.04280000     -31.38400000     -69.73810000
H      -45.85670000     -32.66020000     -69.88960000
C      -43.48850000     -33.96640000     -70.77870000
H      -42.55950000     -34.40410000     -70.41080000
H      -44.31410000     -34.17920000     -70.13880000
C      -43.09060000     -32.47280000     -70.94490000
C      -41.81720000     -32.06220000     -71.01050000
C      -43.97750000     -31.30990000     -71.09080000
H      -40.88520000     -32.61440000     -71.07640000
C      -43.25330000     -30.19710000     -71.49290000
C      -45.38290000     -30.95640000     -71.07070000
C      -45.67080000     -29.67540000     -71.38680000
S      -41.54980000     -30.42480000     -71.66140000
S      -44.21740000     -28.73860000     -71.83390000
H      -46.61800000     -29.07270000     -71.25510000
