40
Properties=species:S:1:pos:R:3 #=T CELL(abcABC):=T 1.889726e+02=T 90.00000=T Traj:=T positionsangstrom=T Step:=T 0=T Bead:=T pbc="F F F"
C      -43.54680000     -30.08960000     -70.42010000
C      -43.09300000     -30.85680000     -71.57240000
C      -42.40760000     -32.00410000     -71.31100000
C      -42.12440000     -32.49980000     -69.99790000
C      -42.55860000     -31.72980000     -68.91490000
C      -43.19020000     -30.48530000     -69.11850000
H      -44.02610000     -29.15130000     -70.56670000
H      -41.92410000     -32.59450000     -72.14710000
H      -42.55130000     -32.22870000     -67.93600000
H      -43.46890000     -29.73630000     -68.32080000
C      -41.46700000     -33.87260000     -69.77260000
H      -41.40060000     -34.10260000     -68.70020000
H      -40.41250000     -33.72100000     -70.12090000
C      -43.56950000     -30.45290000     -72.93080000
H      -44.53010000     -29.88370000     -72.87020000
H      -42.85670000     -29.85330000     -73.39120000
S      -42.27250000     -35.19400000     -70.76890000
S      -43.92780000     -31.82540000     -74.21650000
C      -43.93140000     -35.46290000     -69.96310000
H      -44.34600000     -36.34940000     -70.43270000
H      -43.77740000     -35.66380000     -68.96660000
C      -45.63170000     -32.56240000     -73.86390000
H      -45.40640000     -33.62830000     -73.88840000
H      -46.15630000     -32.37070000     -74.78240000
C      -46.40890000     -32.11240000     -72.57570000
H      -45.83440000     -31.88020000     -71.65310000
H      -47.00040000     -31.23030000     -72.84680000
C      -44.83030000     -34.31860000     -70.37260000
H      -44.55240000     -34.05590000     -71.39130000
H      -44.60800000     -33.33440000     -69.77340000
C      -46.34650000     -34.65490000     -70.37060000
C      -46.84460000     -35.71670000     -69.67810000
C      -47.36270000     -34.15710000     -71.30120000
H      -46.30220000     -36.21530000     -68.86590000
C      -48.59670000     -34.80560000     -71.16340000
C      -47.45020000     -33.12480000     -72.25450000
C      -48.72490000     -32.99210000     -72.80190000
S      -48.53130000     -36.03790000     -69.91630000
S      -49.83140000     -34.22680000     -72.26750000
H      -48.99460000     -32.24020000     -73.51330000
