40
Properties=species:S:1:pos:R:3 #=T CELL(abcABC):=T 1.889726e+02=T 90.00000=T Traj:=T positionsangstrom=T Step:=T 0=T Bead:=T pbc="F F F"
C      -43.59490000     -30.06260000     -70.64000000
C      -43.16190000     -30.92040000     -71.64260000
C      -42.41770000     -32.10000000     -71.33520000
C      -42.18290000     -32.44650000     -69.98540000
C      -42.63560000     -31.57960000     -69.01170000
C      -43.31200000     -30.42490000     -69.32720000
H      -44.05200000     -29.15070000     -71.05160000
H      -41.97500000     -32.60610000     -72.14040000
H      -42.38410000     -31.77800000     -67.99610000
H      -43.69750000     -29.86760000     -68.49680000
C      -41.54700000     -33.75770000     -69.59520000
H      -41.66830000     -33.96420000     -68.52250000
H      -40.43850000     -33.83710000     -69.60910000
C      -43.64460000     -30.54070000     -73.07130000
H      -44.47490000     -29.95460000     -72.98280000
H      -42.84330000     -30.01830000     -73.67840000
S      -42.06360000     -35.19300000     -70.64750000
S      -44.05740000     -31.99460000     -74.14880000
C      -43.74240000     -35.56150000     -70.02560000
H      -43.96420000     -36.57700000     -70.41990000
H      -43.90960000     -35.75040000     -68.94660000
C      -45.88160000     -32.51860000     -73.91930000
H      -45.71040000     -33.58810000     -74.05690000
H      -46.48430000     -32.09500000     -74.75450000
C      -46.40300000     -32.10450000     -72.56720000
H      -45.63280000     -32.07670000     -71.80630000
H      -46.76010000     -31.06060000     -72.65590000
C      -44.74830000     -34.51800000     -70.64710000
H      -44.29980000     -34.36850000     -71.70410000
H      -44.52490000     -33.59110000     -70.09260000
C      -46.21900000     -34.93830000     -70.64990000
C      -46.76220000     -36.03540000     -70.01900000
C      -47.28260000     -34.16420000     -71.29590000
H      -46.24590000     -36.82390000     -69.53000000
C      -48.53210000     -34.73300000     -71.15360000
C      -47.47400000     -32.99210000     -72.13650000
C      -48.79330000     -32.61510000     -72.30830000
S      -48.48100000     -36.17200000     -70.18860000
S      -49.86620000     -33.86250000     -71.79360000
H      -49.12340000     -31.73480000     -72.84920000
