40
Properties=species:S:1:pos:R:3 #=T CELL(abcABC):=T 1.889726e+02=T 90.00000=T Traj:=T positionsangstrom=T Step:=T 0=T Bead:=T pbc="F F F"
C      -48.64940000     -36.20540000     -71.24370000
C      -48.04740000     -35.28020000     -70.31090000
C      -46.76490000     -35.53950000     -69.83200000
C      -46.03040000     -36.61180000     -70.38320000
C      -46.66410000     -37.50300000     -71.34020000
C      -47.93190000     -37.27240000     -71.78650000
H      -49.70690000     -36.10370000     -71.56640000
H      -46.30300000     -34.94510000     -69.00800000
H      -46.18090000     -38.40960000     -71.65190000
H      -48.36010000     -37.97960000     -72.53670000
C      -44.69030000     -36.97440000     -69.81020000
H      -44.65680000     -38.05010000     -69.67300000
H      -44.56480000     -36.53020000     -68.85640000
C      -48.87550000     -34.17480000     -69.77830000
H      -49.82920000     -34.63270000     -69.42020000
H      -48.45860000     -33.83630000     -68.84760000
S      -43.26290000     -36.61870000     -70.92310000
S      -49.25540000     -32.83000000     -70.97790000
C      -43.39570000     -34.87790000     -71.52860000
H      -42.58360000     -34.81900000     -72.23840000
H      -44.21750000     -34.86700000     -72.17000000
C      -47.65720000     -32.55500000     -71.84600000
H      -47.66110000     -31.75940000     -72.58340000
H      -47.49470000     -33.49640000     -72.49480000
C      -46.43320000     -32.17850000     -70.95160000
H      -46.94160000     -31.67720000     -70.11410000
H      -45.99130000     -33.04550000     -70.53180000
C      -43.30580000     -33.73010000     -70.51340000
H      -42.51710000     -33.96160000     -69.78320000
H      -44.28470000     -33.57250000     -69.97880000
C      -42.97570000     -32.49150000     -71.21880000
C      -41.66790000     -32.11760000     -71.40440000
C      -43.95680000     -31.48370000     -71.57280000
H      -40.84520000     -32.80700000     -71.43420000
C      -43.34780000     -30.41810000     -72.22570000
C      -45.42190000     -31.31760000     -71.58210000
C      -45.77390000     -30.08270000     -72.03210000
S      -41.63640000     -30.60630000     -72.31090000
S      -44.43130000     -29.14090000     -72.75740000
H      -46.77530000     -29.66170000     -71.99320000
