40
Properties=species:S:1:pos:R:3 #=T CELL(abcABC):=T 1.889726e+02=T 90.00000=T Traj:=T positionsangstrom=T Step:=T 0=T Bead:=T pbc="F F F"
C      -45.24880000     -31.20830000     -68.85430000
C      -46.41930000     -30.79310000     -69.47770000
C      -47.49340000     -31.70400000     -69.45810000
C      -47.47170000     -32.97170000     -68.81620000
C      -46.21410000     -33.35300000     -68.27720000
C      -45.10180000     -32.49170000     -68.31200000
H      -44.35190000     -30.59120000     -68.82720000
H      -48.39930000     -31.41600000     -70.05230000
H      -46.09640000     -34.40050000     -67.94250000
H      -44.15220000     -32.71350000     -67.82060000
C      -48.59320000     -33.92670000     -68.89660000
H      -49.58570000     -33.53650000     -68.59250000
H      -48.45300000     -34.80360000     -68.28210000
C      -46.55770000     -29.51470000     -70.35450000
H      -47.54910000     -29.26490000     -70.19420000
H      -45.91050000     -28.80700000     -70.00370000
S      -48.75880000     -34.31910000     -70.67890000
S      -46.34670000     -29.70120000     -72.14830000
C      -47.07410000     -35.09970000     -71.03870000
H      -46.26230000     -34.49430000     -70.57780000
H      -46.97120000     -36.09180000     -70.64410000
C      -44.74610000     -30.71760000     -72.23250000
H      -44.25670000     -30.50190000     -71.28540000
H      -44.22700000     -30.30300000     -73.12250000
C      -45.05730000     -32.19150000     -72.50660000
H      -45.53690000     -32.38730000     -71.57530000
H      -45.78860000     -32.25860000     -73.31200000
C      -46.56260000     -35.18690000     -72.51980000
H      -46.56180000     -34.25720000     -73.10560000
H      -47.07520000     -35.98660000     -73.05510000
C      -45.05380000     -35.56000000     -72.52750000
C      -44.63710000     -36.83630000     -72.57550000
C      -43.93230000     -34.61860000     -72.63060000
H      -45.20420000     -37.78720000     -72.37300000
C      -42.69250000     -35.27160000     -72.71570000
C      -43.86460000     -33.19570000     -72.56570000
C      -42.53400000     -32.75310000     -72.58120000
S      -42.86550000     -36.99890000     -72.59590000
S      -41.45560000     -34.10540000     -72.73040000
H      -42.08180000     -31.85010000     -72.42260000
