40
Properties=species:S:1:pos:R:3 #=T CELL(abcABC):=T 1.889726e+02=T 90.00000=T Traj:=T positionsangstrom=T Step:=T 0=T Bead:=T pbc="F F F"
C      -43.81020000     -30.03770000     -70.73990000
C      -43.37770000     -30.93370000     -71.76550000
C      -42.70120000     -32.12390000     -71.36410000
C      -42.40170000     -32.44410000     -69.98350000
C      -42.87230000     -31.49430000     -69.01780000
C      -43.58770000     -30.35330000     -69.39240000
H      -44.25430000     -29.14000000     -71.09060000
H      -42.33370000     -32.75140000     -72.14790000
H      -42.83750000     -31.66510000     -67.93850000
H      -43.73720000     -29.56860000     -68.60070000
C      -41.57500000     -33.63260000     -69.56780000
H      -41.62260000     -33.65940000     -68.48810000
H      -40.55460000     -33.41680000     -69.87380000
C      -43.55280000     -30.64600000     -73.22660000
H      -44.29770000     -29.88850000     -73.44200000
H      -42.59650000     -30.23930000     -73.63990000
S      -41.97230000     -35.16940000     -70.54640000
S      -43.88690000     -32.16430000     -74.27300000
C      -43.81150000     -35.55480000     -70.33980000
H      -43.86580000     -36.31140000     -71.01850000
H      -44.04620000     -35.88560000     -69.30700000
C      -45.61320000     -32.51320000     -73.74820000
H      -45.72930000     -33.61480000     -73.82060000
H      -46.31440000     -32.19370000     -74.48100000
C      -46.25560000     -32.10740000     -72.36510000
H      -45.56390000     -32.17170000     -71.54990000
H      -46.50620000     -31.00110000     -72.42960000
C      -44.74510000     -34.41280000     -70.74650000
H      -44.63400000     -33.96000000     -71.68390000
H      -44.67920000     -33.61510000     -69.97410000
C      -46.20270000     -34.91980000     -70.73960000
C      -46.60110000     -36.14040000     -70.24760000
C      -47.31370000     -34.13160000     -71.20640000
H      -46.03000000     -36.95530000     -69.94090000
C      -48.55150000     -34.77250000     -71.02880000
C      -47.45640000     -32.87200000     -71.94260000
C      -48.78090000     -32.52010000     -72.16100000
S      -48.38410000     -36.36810000     -70.28740000
S      -49.87990000     -33.70830000     -71.55080000
H      -49.13270000     -31.62620000     -72.71180000
