40
Properties=species:S:1:pos:R:3 #=T CELL(abcABC):=T 1.889726e+02=T 90.00000=T Traj:=T positionsangstrom=T Step:=T 0=T Bead:=T pbc="F F F"
C      -43.98310000     -29.95910000     -71.09360000
C      -43.38550000     -30.84580000     -72.02380000
C      -42.55800000     -31.86800000     -71.52560000
C      -42.64920000     -32.13790000     -70.11760000
C      -43.33070000     -31.27550000     -69.23490000
C      -44.00130000     -30.15770000     -69.74190000
H      -44.53740000     -29.10210000     -71.46280000
H      -41.96510000     -32.55640000     -72.06470000
H      -43.31340000     -31.59550000     -68.22750000
H      -44.64720000     -29.52300000     -69.13090000
C      -41.81670000     -33.22120000     -69.45590000
H      -42.18160000     -33.28410000     -68.39310000
H      -40.75920000     -32.85040000     -69.40140000
C      -43.64900000     -30.54250000     -73.51900000
H      -44.45960000     -29.87070000     -73.61590000
H      -42.65650000     -30.17220000     -74.01600000
S      -42.00750000     -34.78090000     -70.40760000
S      -44.17070000     -32.11590000     -74.45910000
C      -43.84310000     -35.16540000     -70.33280000
H      -43.92240000     -36.17170000     -69.77050000
H      -44.31550000     -34.49130000     -69.60330000
C      -45.91100000     -32.49580000     -73.90160000
H      -46.05060000     -33.63860000     -74.08190000
H      -46.67430000     -32.11410000     -74.58810000
C      -46.17280000     -32.24260000     -72.42840000
H      -45.26780000     -32.45050000     -71.89320000
H      -46.46390000     -31.19440000     -72.24700000
C      -44.60950000     -35.30490000     -71.67320000
H      -44.20840000     -36.22910000     -72.18840000
H      -44.38700000     -34.51770000     -72.35060000
C      -46.07430000     -35.36940000     -71.26520000
C      -46.40650000     -36.52520000     -70.56610000
C      -47.13010000     -34.40900000     -71.27740000
H      -45.80080000     -37.53100000     -70.57610000
C      -48.24760000     -34.87650000     -70.59900000
C      -47.28920000     -33.09650000     -71.78350000
C      -48.58310000     -32.62170000     -71.60760000
S      -48.08770000     -36.52530000     -70.03810000
S      -49.63300000     -33.75650000     -70.68870000
H      -49.13050000     -31.72900000     -71.83000000
