40
Properties=species:S:1:pos:R:3 #=T CELL(abcABC):=T 1.889726e+02=T 90.00000=T Traj:=T positionsangstrom=T Step:=T 0=T Bead:=T pbc="F F F"
C      -48.86480000     -36.39290000     -71.40720000
C      -48.13970000     -35.52290000     -70.62740000
C      -46.77250000     -35.76710000     -70.49630000
C      -46.14690000     -36.81180000     -71.15690000
C      -46.87630000     -37.60710000     -72.02180000
C      -48.24000000     -37.41050000     -72.16550000
H      -49.94500000     -36.46910000     -71.49040000
H      -46.09900000     -35.05680000     -69.97370000
H      -46.35730000     -38.39620000     -72.58820000
H      -48.91180000     -38.00250000     -72.79750000
C      -44.64450000     -37.02990000     -71.04840000
H      -44.56510000     -38.08030000     -70.86680000
H      -44.07490000     -36.59280000     -70.28670000
C      -48.80850000     -34.37670000     -69.90650000
H      -49.80450000     -34.57530000     -69.62150000
H      -48.27240000     -34.02850000     -69.01680000
S      -43.61390000     -36.47180000     -72.49650000
S      -48.89790000     -33.00290000     -71.27130000
C      -43.94720000     -34.64420000     -72.48360000
H      -43.44250000     -34.20200000     -73.40280000
H      -44.97880000     -34.36310000     -72.75110000
C      -47.16400000     -32.56590000     -71.57310000
H      -47.31290000     -31.82230000     -72.35850000
H      -46.61750000     -33.37990000     -71.95770000
C      -46.35770000     -32.12680000     -70.31630000
H      -47.10030000     -31.69090000     -69.65590000
H      -46.08530000     -33.11100000     -69.93780000
C      -43.46190000     -34.05120000     -71.16190000
H      -42.61420000     -34.60570000     -70.82750000
H      -44.33500000     -34.06350000     -70.47280000
C      -43.08240000     -32.58960000     -71.33350000
C      -41.85040000     -32.22000000     -71.80930000
C      -44.00420000     -31.47450000     -71.09980000
H      -41.00380000     -32.93710000     -71.98720000
C      -43.25260000     -30.26530000     -71.16400000
C      -45.27330000     -31.17940000     -70.58860000
C      -45.47460000     -29.84840000     -70.28340000
S      -41.67710000     -30.49200000     -71.87750000
S      -44.09230000     -28.80980000     -70.68850000
H      -46.35510000     -29.36670000     -69.81010000
