40
Properties=species:S:1:pos:R:3 #=T CELL(abcABC):=T 1.889726e+02=T 90.00000=T Traj:=T positionsangstrom=T Step:=T 0=T Bead:=T pbc="F F F"
C      -49.04790000     -36.09690000     -71.60710000
C      -48.25430000     -35.51800000     -70.57250000
C      -46.86910000     -35.83090000     -70.52070000
C      -46.29400000     -36.81590000     -71.38000000
C      -47.11630000     -37.40200000     -72.35000000
C      -48.44090000     -36.95140000     -72.56450000
H      -50.12430000     -35.80960000     -71.75320000
H      -46.24780000     -35.33260000     -69.76320000
H      -46.76040000     -38.27550000     -72.92460000
H      -48.99760000     -37.41820000     -73.32330000
C      -44.85210000     -37.15670000     -71.15930000
H      -44.71080000     -38.27160000     -71.21210000
H      -44.42880000     -36.67060000     -70.22840000
C      -48.70880000     -34.58240000     -69.53970000
H      -49.69680000     -34.72780000     -69.15010000
H      -47.97150000     -34.49220000     -68.78560000
S      -43.82420000     -36.50390000     -72.70630000
S      -48.83590000     -32.87160000     -70.27570000
C      -44.22720000     -34.67780000     -72.77170000
H      -43.56970000     -34.22110000     -73.55780000
H      -45.31440000     -34.71910000     -72.89220000
C      -47.14410000     -32.37840000     -70.88110000
H      -47.24560000     -31.50800000     -71.55820000
H      -46.87410000     -33.23740000     -71.51960000
C      -46.11020000     -31.93740000     -69.84070000
H      -46.63650000     -31.44720000     -69.02090000
H      -45.74360000     -32.84800000     -69.39850000
C      -43.83160000     -34.09690000     -71.38480000
H      -43.12180000     -34.72770000     -71.03290000
H      -44.69960000     -34.09080000     -70.73130000
C      -43.30170000     -32.68670000     -71.51070000
C      -42.10320000     -32.56640000     -72.20210000
C      -43.81080000     -31.41500000     -71.09150000
H      -41.46260000     -33.27260000     -72.68100000
C      -42.98400000     -30.34120000     -71.44730000
C      -45.01910000     -31.04940000     -70.36030000
C      -45.16820000     -29.63170000     -70.31280000
S      -41.49380000     -30.87530000     -72.13760000
S      -43.72890000     -28.82260000     -70.90930000
H      -45.95660000     -29.15450000     -69.80690000
