40
Properties=species:S:1:pos:R:3 #=T CELL(abcABC):=T 1.889726e+02=T 90.00000=T Traj:=T positionsangstrom=T Step:=T 0=T Bead:=T pbc="F F F"
C      -48.98000000     -36.36370000     -71.48110000
C      -48.18940000     -35.51260000     -70.67990000
C      -46.82530000     -35.76380000     -70.55640000
C      -46.19170000     -36.78480000     -71.36140000
C      -47.01770000     -37.49660000     -72.25000000
C      -48.34820000     -37.29480000     -72.31860000
H      -50.07310000     -36.24720000     -71.37080000
H      -46.29590000     -35.12660000     -69.86860000
H      -46.60790000     -38.34880000     -72.86940000
H      -48.93110000     -37.81680000     -73.02000000
C      -44.71810000     -37.12910000     -71.30090000
H      -44.35710000     -38.13460000     -71.22820000
H      -44.27010000     -36.66830000     -70.41870000
C      -48.85720000     -34.46480000     -69.79390000
H      -49.90260000     -34.73360000     -69.61650000
H      -48.33530000     -34.44170000     -68.76160000
S      -43.79170000     -36.59510000     -72.79140000
S      -48.93530000     -32.68670000     -70.41040000
C      -44.07150000     -34.73980000     -72.64490000
H      -43.51000000     -34.25410000     -73.48380000
H      -44.99040000     -34.41630000     -73.01260000
C      -47.20230000     -32.45290000     -71.08020000
H      -47.41320000     -31.79080000     -71.95770000
H      -46.92670000     -33.41220000     -71.50740000
C      -46.26450000     -31.94130000     -69.99120000
H      -46.93260000     -31.21840000     -69.40400000
H      -45.87560000     -32.69970000     -69.32080000
C      -43.70960000     -34.10620000     -71.27610000
H      -42.90670000     -34.67760000     -70.77000000
H      -44.55300000     -34.12380000     -70.58080000
C      -43.19350000     -32.69150000     -71.34340000
C      -41.97840000     -32.42160000     -71.90090000
C      -43.87730000     -31.44510000     -71.13850000
H      -41.15440000     -33.18760000     -72.02270000
C      -43.15140000     -30.31280000     -71.48120000
C      -45.11430000     -31.09390000     -70.46130000
C      -45.14450000     -29.73900000     -70.18530000
S      -41.57430000     -30.72700000     -72.10190000
S      -43.76920000     -28.82160000     -70.83610000
H      -45.90130000     -29.27790000     -69.59600000
