40
Properties=species:S:1:pos:R:3 #=T CELL(abcABC):=T 1.889726e+02=T 90.00000=T Traj:=T positionsangstrom=T Step:=T 0=T Bead:=T pbc="F F F"
C      -48.97280000     -35.86120000     -71.62960000
C      -48.16840000     -35.53020000     -70.52800000
C      -46.83530000     -36.08370000     -70.39690000
C      -46.36860000     -36.95770000     -71.39640000
C      -47.12400000     -37.26960000     -72.48550000
C      -48.44340000     -36.75740000     -72.55230000
H      -49.99440000     -35.47480000     -71.71070000
H      -46.09660000     -35.92280000     -69.58290000
H      -46.68940000     -37.70750000     -73.36100000
H      -49.08000000     -37.00390000     -73.42420000
C      -44.89130000     -37.36830000     -71.37420000
H      -44.84680000     -38.44490000     -71.36300000
H      -44.46990000     -37.06100000     -70.43680000
C      -48.72080000     -34.49160000     -69.50560000
H      -49.77290000     -34.81010000     -69.22750000
H      -48.17460000     -34.63080000     -68.54940000
S      -43.86590000     -36.66350000     -72.68690000
S      -48.80690000     -32.72460000     -70.09440000
C      -44.18870000     -34.86610000     -72.66860000
H      -43.55690000     -34.42190000     -73.41260000
H      -45.24010000     -34.75330000     -73.11420000
C      -47.16060000     -32.40560000     -70.89180000
H      -47.27290000     -31.65550000     -71.65480000
H      -46.72790000     -33.32790000     -71.27500000
C      -46.14360000     -31.92820000     -69.85000000
H      -46.71680000     -31.37300000     -69.09770000
H      -45.61200000     -32.76750000     -69.27820000
C      -43.96510000     -34.03970000     -71.41170000
H      -43.31340000     -34.69810000     -70.74420000
H      -44.91910000     -34.00190000     -70.71580000
C      -43.28750000     -32.70850000     -71.56480000
C      -42.08200000     -32.47060000     -72.19450000
C      -43.84160000     -31.50310000     -71.02880000
H      -41.49000000     -33.17080000     -72.66090000
C      -42.99350000     -30.42150000     -71.36240000
C      -45.03690000     -31.02490000     -70.35300000
C      -45.06940000     -29.58610000     -70.28660000
S      -41.54180000     -30.76680000     -72.31540000
S      -43.65360000     -28.86290000     -70.93380000
H      -45.93510000     -29.11320000     -69.87160000
