40
Properties=species:S:1:pos:R:3 #=T CELL(abcABC):=T 1.889726e+02=T 90.00000=T Traj:=T positionsangstrom=T Step:=T 0=T Bead:=T pbc="F F F"
C      -43.52850000     -30.47890000     -71.34570000
C      -42.79810000     -31.57760000     -71.85960000
C      -42.35150000     -32.55630000     -70.97570000
C      -42.50820000     -32.39590000     -69.60640000
C      -43.06760000     -31.25890000     -69.09880000
C      -43.56570000     -30.26150000     -69.95580000
H      -43.99980000     -29.69200000     -71.97920000
H      -41.83090000     -33.49640000     -71.20240000
H      -43.15580000     -31.07860000     -67.99480000
H      -43.98770000     -29.33150000     -69.51950000
C      -41.97130000     -33.45560000     -68.69380000
H      -41.88280000     -33.14580000     -67.63610000
H      -40.92050000     -33.72030000     -68.86720000
C      -42.62010000     -31.68280000     -73.37520000
H      -43.14040000     -30.83250000     -73.90490000
H      -41.55510000     -31.68010000     -73.63420000
S      -42.88110000     -35.03600000     -68.66220000
S      -43.31950000     -33.25700000     -74.16190000
C      -44.56440000     -34.57010000     -69.28710000
H      -45.37660000     -35.00420000     -68.62580000
H      -44.69460000     -33.49510000     -69.23110000
C      -45.14820000     -33.10850000     -74.25520000
H      -45.48270000     -34.16360000     -74.18020000
H      -45.57360000     -32.68750000     -75.15580000
C      -45.68530000     -32.34750000     -73.00670000
H      -44.98800000     -32.28230000     -72.18140000
H      -45.63150000     -31.31020000     -73.30350000
C      -44.92500000     -35.01520000     -70.72860000
H      -44.60760000     -36.06210000     -70.86590000
H      -44.36690000     -34.41690000     -71.48270000
C      -46.43380000     -34.90930000     -70.94860000
C      -47.24780000     -35.72210000     -70.19130000
C      -47.27290000     -34.05570000     -71.72430000
H      -46.82710000     -36.55060000     -69.59770000
C      -48.64080000     -34.22780000     -71.54790000
C      -46.96630000     -32.85210000     -72.58140000
C      -48.15170000     -32.26150000     -72.99830000
S      -48.99070000     -35.52390000     -70.44650000
S      -49.67390000     -33.08740000     -72.38730000
H      -48.11320000     -31.37720000     -73.63330000
