40
Properties=species:S:1:pos:R:3 #=T CELL(abcABC):=T 1.889726e+02=T 90.00000=T Traj:=T positionsangstrom=T Step:=T 0=T Bead:=T pbc="F F F"
C      -45.23800000     -30.74800000     -68.67620000
C      -46.40540000     -30.53970000     -69.50390000
C      -47.36770000     -31.53290000     -69.58510000
C      -47.17500000     -32.82470000     -68.91010000
C      -45.96810000     -32.99110000     -68.21060000
C      -45.05870000     -31.92050000     -67.98800000
H      -44.56800000     -29.91340000     -68.49020000
H      -48.24590000     -31.34730000     -70.19330000
H      -45.77430000     -33.89970000     -67.68040000
H      -44.09350000     -32.20770000     -67.60780000
C      -48.22240000     -33.81420000     -68.78620000
H      -49.27160000     -33.48920000     -68.64430000
H      -47.87450000     -34.58120000     -68.05460000
C      -46.49560000     -29.25630000     -70.36290000
H      -47.45480000     -28.78720000     -70.36090000
H      -45.84470000     -28.43150000     -70.03080000
S      -48.60570000     -34.65810000     -70.44310000
S      -46.31380000     -29.64440000     -72.21910000
C      -46.86330000     -35.22220000     -70.98130000
H      -46.24140000     -34.45960000     -70.53430000
H      -46.73910000     -36.23020000     -70.52950000
C      -44.89110000     -30.84420000     -72.35460000
H      -44.27180000     -30.86510000     -71.43300000
H      -44.27060000     -30.61100000     -73.17300000
C      -45.35030000     -32.27880000     -72.49920000
H      -45.93740000     -32.51700000     -71.60590000
H      -45.95870000     -32.44750000     -73.34570000
C      -46.61300000     -35.43760000     -72.47030000
H      -46.81480000     -34.49540000     -73.00010000
H      -47.39390000     -36.04280000     -72.92010000
C      -45.12960000     -35.80340000     -72.71210000
C      -44.63450000     -37.04390000     -72.92500000
C      -44.12960000     -34.74750000     -72.75020000
H      -45.21340000     -37.93480000     -73.06710000
C      -42.90040000     -35.31420000     -72.72920000
C      -44.10000000     -33.26340000     -72.57080000
C      -42.75480000     -32.88570000     -72.42970000
S      -42.87130000     -37.06230000     -72.89670000
S      -41.62170000     -34.14960000     -72.55990000
H      -42.42810000     -31.81960000     -72.37630000
