40
Properties=species:S:1:pos:R:3 #=T CELL(abcABC):=T 1.889726e+02=T 90.00000=T Traj:=T positionsangstrom=T Step:=T 0=T Bead:=T pbc="F F F"
C      -48.80510000     -35.35610000     -71.60840000
C      -48.17750000     -35.23940000     -70.35550000
C      -46.89490000     -35.90830000     -70.23920000
C      -46.41110000     -36.75890000     -71.24620000
C      -47.05300000     -36.85750000     -72.48040000
C      -48.25720000     -36.13300000     -72.64010000
H      -49.69990000     -34.74210000     -71.84240000
H      -46.24530000     -35.77480000     -69.33990000
H      -46.75060000     -37.44530000     -73.34150000
H      -48.89090000     -36.23710000     -73.59170000
C      -45.06590000     -37.39700000     -71.01790000
H      -45.11100000     -38.49860000     -70.93430000
H      -44.62930000     -37.09150000     -70.09430000
C      -48.62350000     -34.31950000     -69.19850000
H      -49.62000000     -34.61760000     -68.73760000
H      -47.95480000     -34.31130000     -68.35650000
S      -43.82880000     -36.94590000     -72.33960000
S      -48.90140000     -32.52620000     -69.69730000
C      -44.04960000     -35.15130000     -72.58490000
H      -43.45750000     -34.87280000     -73.43740000
H      -45.11050000     -34.90030000     -72.57770000
C      -47.26040000     -32.13160000     -70.61400000
H      -47.45680000     -31.11820000     -70.92680000
H      -47.21520000     -32.80960000     -71.50450000
C      -45.95740000     -32.23410000     -69.83630000
H      -46.11940000     -31.96620000     -68.75180000
H      -45.67690000     -33.30110000     -69.78770000
C      -43.43110000     -34.30260000     -71.42510000
H      -42.63310000     -34.83300000     -70.98990000
H      -44.25640000     -34.27430000     -70.71060000
C      -43.16150000     -32.86300000     -71.78890000
C      -42.06390000     -32.58260000     -72.61970000
C      -43.80120000     -31.65180000     -71.34640000
H      -41.33400000     -33.17580000     -73.06160000
C      -43.22100000     -30.48440000     -71.88390000
C      -44.89950000     -31.31470000     -70.50370000
C      -44.99120000     -29.95570000     -70.28070000
S      -41.87240000     -30.81330000     -72.90480000
S      -43.77080000     -29.00100000     -71.07820000
H      -45.59900000     -29.35840000     -69.58030000
