40
Properties=species:S:1:pos:R:3 #=T CELL(abcABC):=T 1.889726e+02=T 90.00000=T Traj:=T positionsangstrom=T Step:=T 0=T Bead:=T pbc="F F F"
C      -48.97380000     -35.35870000     -71.38350000
C      -48.23730000     -35.17330000     -70.17860000
C      -46.98920000     -35.75430000     -70.06280000
C      -46.37170000     -36.41060000     -71.13040000
C      -47.07980000     -36.58160000     -72.35140000
C      -48.36840000     -36.15510000     -72.40920000
H      -49.94110000     -34.89260000     -71.59410000
H      -46.41360000     -35.64160000     -69.15640000
H      -46.53940000     -37.08680000     -73.15670000
H      -48.97320000     -36.30560000     -73.29240000
C      -45.00630000     -37.05610000     -70.94010000
H      -45.23820000     -38.12320000     -70.69530000
H      -44.52100000     -36.60440000     -70.02090000
C      -48.72430000     -34.27650000     -69.14400000
H      -49.74250000     -34.50080000     -68.84170000
H      -48.06820000     -34.57590000     -68.26040000
S      -43.89250000     -37.07460000     -72.33300000
S      -48.68220000     -32.50090000     -69.54010000
C      -43.83810000     -35.27540000     -72.76900000
H      -43.20830000     -35.27140000     -73.65090000
H      -44.78450000     -34.88100000     -73.16530000
C      -47.25150000     -32.28840000     -70.67400000
H      -47.37420000     -31.34360000     -71.17490000
H      -47.20500000     -33.06650000     -71.39800000
C      -45.92390000     -32.28360000     -69.89500000
H      -46.12490000     -31.91350000     -68.86670000
H      -45.37800000     -33.24950000     -69.82840000
C      -43.36180000     -34.38060000     -71.58780000
H      -42.53600000     -34.99750000     -71.11040000
H      -44.18180000     -34.38440000     -70.84070000
C      -43.09930000     -32.91270000     -71.97350000
C      -42.00630000     -32.52050000     -72.72710000
C      -43.75060000     -31.73220000     -71.38990000
H      -41.38650000     -33.23200000     -73.23290000
C      -43.17870000     -30.58530000     -71.84400000
C      -44.91760000     -31.35120000     -70.58600000
C      -45.16280000     -30.01160000     -70.51880000
S      -41.82270000     -30.82630000     -72.88270000
S      -43.93690000     -29.07600000     -71.27780000
H      -46.00540000     -29.53160000     -70.08460000
