40
Properties=species:S:1:pos:R:3 #=T CELL(abcABC):=T 1.889726e+02=T 90.00000=T Traj:=T positionsangstrom=T Step:=T 0=T Bead:=T pbc="F F F"
C      -48.32710000     -35.78280000     -70.44030000
C      -47.36780000     -36.09350000     -71.41680000
C      -46.09950000     -36.35120000     -70.99140000
C      -45.70010000     -36.41940000     -69.63230000
C      -46.69830000     -36.10960000     -68.72210000
C      -47.98040000     -35.74340000     -69.11100000
H      -49.29520000     -35.59870000     -70.67530000
H      -45.51580000     -36.52530000     -71.83550000
H      -46.32930000     -35.96070000     -67.61300000
H      -48.71380000     -35.59850000     -68.29960000
C      -44.32110000     -36.72990000     -69.22620000
H      -44.16780000     -37.80600000     -69.53890000
H      -44.08890000     -36.63930000     -68.19790000
C      -47.57120000     -36.21170000     -72.90780000
H      -46.71530000     -36.78170000     -73.37100000
H      -48.49890000     -36.82170000     -72.94350000
S      -43.08680000     -35.83620000     -70.32860000
S      -47.82900000     -34.65560000     -73.77030000
C      -43.07460000     -34.02520000     -69.83850000
H      -42.51060000     -33.95350000     -68.93320000
H      -42.44370000     -33.50360000     -70.56980000
C      -46.81190000     -33.42900000     -72.78690000
H      -46.94150000     -33.64740000     -71.70750000
H      -47.40170000     -32.48760000     -73.05740000
C      -45.34270000     -33.35780000     -73.22410000
H      -44.79930000     -34.15380000     -72.66770000
H      -45.24850000     -33.55550000     -74.28890000
C      -44.44100000     -33.34420000     -69.73730000
H      -44.73580000     -33.38710000     -68.67200000
H      -45.17950000     -33.80870000     -70.37810000
C      -44.32090000     -31.90050000     -70.19360000
C      -44.06020000     -30.79920000     -69.35650000
C      -44.37150000     -31.40770000     -71.60980000
H      -44.37440000     -30.84090000     -68.33490000
C      -44.26260000     -30.03330000     -71.67690000
C      -44.74500000     -31.99450000     -72.90110000
C      -44.75190000     -30.96390000     -73.85890000
S      -44.00720000     -29.25720000     -70.16900000
S      -44.33270000     -29.43260000     -73.31640000
H      -45.10080000     -30.93380000     -74.83110000
