40
Properties=species:S:1:pos:R:3 #=T CELL(abcABC):=T 1.889726e+02=T 90.00000=T Traj:=T positionsangstrom=T Step:=T 0=T Bead:=T pbc="F F F"
C      -48.42950000     -35.90170000     -70.45870000
C      -47.50870000     -36.16680000     -71.44490000
C      -46.16790000     -36.39960000     -71.03540000
C      -45.79300000     -36.30480000     -69.70350000
C      -46.77780000     -36.01090000     -68.72820000
C      -48.13380000     -35.83080000     -69.10490000
H      -49.42280000     -35.79350000     -70.72610000
H      -45.36650000     -36.57140000     -71.70900000
H      -46.55590000     -35.90960000     -67.62890000
H      -48.93910000     -35.59440000     -68.43330000
C      -44.38370000     -36.53700000     -69.17120000
H      -44.25320000     -37.64150000     -68.93160000
H      -44.33100000     -36.07470000     -68.17900000
C      -47.94290000     -36.18590000     -72.88200000
H      -47.34460000     -36.82040000     -73.49310000
H      -48.95740000     -36.53180000     -72.89860000
S      -43.01110000     -35.85180000     -70.22050000
S      -47.71080000     -34.58070000     -73.87500000
C      -43.04740000     -33.96430000     -70.08590000
H      -42.38990000     -33.62900000     -69.20610000
H      -42.66660000     -33.65930000     -71.01610000
C      -46.79410000     -33.45830000     -72.74870000
H      -47.00750000     -33.80190000     -71.79190000
H      -47.16820000     -32.36080000     -72.75220000
C      -45.24700000     -33.41400000     -72.98190000
H      -44.74960000     -34.06890000     -72.27270000
H      -45.02640000     -33.76070000     -73.99240000
C      -44.41810000     -33.34700000     -69.79550000
H      -44.72380000     -33.51410000     -68.77250000
H      -45.22470000     -33.81470000     -70.43780000
C      -44.39000000     -31.88470000     -70.20250000
C      -44.01470000     -30.85310000     -69.37090000
C      -44.48030000     -31.36280000     -71.51670000
H      -43.90320000     -30.99850000     -68.32040000
C      -44.31430000     -30.00480000     -71.67610000
C      -44.75830000     -32.00740000     -72.78020000
C      -44.62490000     -31.18830000     -73.90620000
S      -43.85330000     -29.24450000     -70.16750000
S      -44.29160000     -29.45670000     -73.34910000
H      -44.74410000     -31.48880000     -74.92630000
