40
Properties=species:S:1:pos:R:3 #=T CELL(abcABC):=T 1.889726e+02=T 90.00000=T Traj:=T positionsangstrom=T Step:=T 0=T Bead:=T pbc="F F F"
C      -47.85390000     -33.75630000     -74.38170000
C      -48.38490000     -33.48020000     -73.12530000
C      -48.30180000     -32.24590000     -72.49390000
C      -47.51690000     -31.20800000     -73.16660000
C      -46.92770000     -31.46010000     -74.38980000
C      -47.18940000     -32.74110000     -75.01570000
H      -48.01640000     -34.74800000     -74.83400000
H      -48.62040000     -32.14840000     -71.48560000
H      -46.43820000     -30.68690000     -74.93680000
H      -46.81050000     -32.83270000     -76.05020000
C      -47.35750000     -29.91530000     -72.48220000
H      -48.27520000     -29.44600000     -72.24550000
H      -46.86920000     -29.21500000     -73.10080000
C      -48.98920000     -34.72030000     -72.43270000
H      -50.02890000     -34.67840000     -72.42230000
H      -48.76850000     -35.54520000     -73.05140000
S      -46.28070000     -29.81320000     -70.99180000
S      -48.34700000     -35.01240000     -70.72770000
C      -44.73450000     -30.73230000     -71.37500000
H      -44.50770000     -30.65030000     -72.45980000
H      -43.90620000     -30.22770000     -70.90920000
C      -46.54490000     -35.42390000     -70.96640000
H      -46.22350000     -34.85120000     -71.81180000
H      -46.37220000     -36.51210000     -71.12660000
C      -45.81500000     -35.07340000     -69.65470000
H      -46.00290000     -34.12340000     -69.21630000
H      -46.22550000     -35.74400000     -68.87580000
C      -44.85330000     -32.10190000     -70.84680000
H      -45.69560000     -32.66920000     -71.17620000
H      -45.05440000     -31.99630000     -69.77760000
C      -43.58620000     -32.98730000     -70.85210000
C      -42.37210000     -32.43220000     -71.19870000
C      -43.37930000     -34.34510000     -70.36270000
H      -42.31860000     -31.47510000     -71.66080000
C      -42.04190000     -34.69960000     -70.19620000
C      -44.31250000     -35.26150000     -69.72550000
C      -43.64330000     -36.26080000     -69.06780000
S      -41.00490000     -33.47650000     -70.79200000
S      -41.90980000     -36.17570000     -69.22780000
H      -44.05070000     -37.19000000     -68.67870000
