40
Properties=species:S:1:pos:R:3 #=T CELL(abcABC):=T 1.889726e+02=T 90.00000=T Traj:=T positionsangstrom=T Step:=T 0=T Bead:=T pbc="F F F"
C      -47.62170000     -33.28120000     -74.64090000
C      -48.17410000     -33.36810000     -73.28330000
C      -48.08990000     -32.25650000     -72.46630000
C      -47.49100000     -31.06080000     -72.94780000
C      -46.89910000     -31.03220000     -74.21470000
C      -46.98460000     -32.17470000     -75.08380000
H      -47.70570000     -34.09910000     -75.28210000
H      -48.20900000     -32.32830000     -71.40390000
H      -46.32800000     -30.13160000     -74.63090000
H      -46.65040000     -32.10620000     -76.13310000
C      -47.26130000     -29.85250000     -72.10860000
H      -48.16990000     -29.26870000     -71.81980000
H      -46.62540000     -29.04920000     -72.51900000
C      -48.82390000     -34.67010000     -72.81800000
H      -49.92020000     -34.61070000     -73.03610000
H      -48.45370000     -35.47560000     -73.47530000
S      -46.62960000     -30.13660000     -70.38300000
S      -48.35950000     -34.98200000     -71.09370000
C      -44.95500000     -30.66650000     -70.71130000
H      -44.65220000     -30.51970000     -71.76170000
H      -44.25570000     -30.01610000     -70.21510000
C      -46.57150000     -35.30640000     -71.25630000
H      -46.01500000     -34.61240000     -71.92350000
H      -46.52230000     -36.31320000     -71.74870000
C      -45.81250000     -35.27760000     -69.93560000
H      -46.13170000     -34.27960000     -69.42640000
H      -46.29040000     -35.98280000     -69.27400000
C      -44.93340000     -32.16240000     -70.36390000
H      -45.59970000     -32.72740000     -71.10380000
H      -45.51340000     -32.47740000     -69.39330000
C      -43.54240000     -32.89760000     -70.33080000
C      -42.34610000     -32.25720000     -70.41350000
C      -43.42630000     -34.35120000     -70.23000000
H      -42.13530000     -31.18320000     -70.45100000
C      -42.07800000     -34.75180000     -70.26310000
C      -44.32790000     -35.42250000     -70.09180000
C      -43.63150000     -36.62290000     -69.93410000
S      -40.94390000     -33.44640000     -70.34630000
S      -41.94930000     -36.51350000     -70.15810000
H      -44.13360000     -37.52320000     -70.15400000
