40
Properties=species:S:1:pos:R:3 #=T CELL(abcABC):=T 1.889726e+02=T 90.00000=T Traj:=T positionsangstrom=T Step:=T 0=T Bead:=T pbc="F F F"
C      -49.50770000     -35.02770000     -70.93230000
C      -48.42470000     -34.56890000     -70.06320000
C      -47.24600000     -35.30410000     -70.04320000
C      -47.09220000     -36.45170000     -70.89850000
C      -48.07760000     -36.74800000     -71.78400000
C      -49.34390000     -36.15270000     -71.76770000
H      -50.44450000     -34.42750000     -71.05610000
H      -46.59900000     -35.06200000     -69.29290000
H      -47.79380000     -37.53420000     -72.56220000
H      -50.07560000     -36.33910000     -72.56030000
C      -45.87180000     -37.27870000     -70.76080000
H      -46.13920000     -38.33440000     -70.58670000
H      -45.36130000     -36.99690000     -69.80380000
C      -48.51280000     -33.26180000     -69.39220000
H      -49.40370000     -33.26640000     -68.84160000
H      -47.66280000     -33.13500000     -68.73120000
S      -44.78240000     -37.09190000     -72.24960000
S      -48.62030000     -31.78950000     -70.47150000
C      -44.42190000     -35.26820000     -72.32440000
H      -43.80260000     -35.20010000     -73.18830000
H      -45.31680000     -34.80350000     -72.74110000
C      -47.08090000     -31.58130000     -71.49210000
H      -47.34530000     -30.72210000     -72.02680000
H      -47.08640000     -32.32590000     -72.29210000
C      -45.88250000     -31.54940000     -70.53260000
H      -46.07330000     -30.95460000     -69.60610000
H      -45.67180000     -32.63390000     -70.29160000
C      -43.93970000     -34.60520000     -71.03220000
H      -43.33340000     -35.30390000     -70.55450000
H      -44.80530000     -34.41690000     -70.44250000
C      -43.14800000     -33.35600000     -71.27990000
C      -41.82150000     -33.51210000     -71.60040000
C      -43.50610000     -31.89070000     -71.45790000
H      -41.22510000     -34.42150000     -71.61950000
C      -42.38040000     -31.10980000     -71.80270000
C      -44.64070000     -30.98270000     -71.17360000
C      -44.34700000     -29.64670000     -71.40590000
S      -40.90710000     -32.03450000     -71.93300000
S      -42.72070000     -29.39250000     -72.08490000
H      -45.16150000     -28.89030000     -71.44230000
