40
Properties=species:S:1:pos:R:3 #=T CELL(abcABC):=T 1.889726e+02=T 90.00000=T Traj:=T positionsangstrom=T Step:=T 0=T Bead:=T pbc="F F F"
C      -48.02960000     -35.86410000     -70.57280000
C      -47.04160000     -36.18290000     -71.53860000
C      -45.72680000     -36.39870000     -71.06390000
C      -45.42840000     -36.47990000     -69.72180000
C      -46.44090000     -36.09010000     -68.82880000
C      -47.74560000     -35.81990000     -69.24400000
H      -49.00310000     -35.57520000     -70.95670000
H      -44.86700000     -36.65240000     -71.65470000
H      -46.26310000     -36.10890000     -67.72940000
H      -48.48520000     -35.59450000     -68.56250000
C      -44.08530000     -36.80490000     -69.15080000
H      -43.64680000     -37.80030000     -69.35020000
H      -44.25190000     -36.72510000     -68.10510000
C      -47.33180000     -36.12420000     -73.06180000
H      -46.30650000     -36.23250000     -73.62040000
H      -48.05250000     -36.88810000     -73.35930000
S      -42.65970000     -35.72720000     -69.65350000
S      -48.26730000     -34.66730000     -73.58540000
C      -43.19600000     -33.95730000     -69.43360000
H      -43.15030000     -33.66640000     -68.42600000
H      -42.34500000     -33.34800000     -69.81590000
C      -47.32710000     -33.18270000     -72.83000000
H      -47.36420000     -33.20010000     -71.78230000
H      -47.94500000     -32.32050000     -73.07650000
C      -45.88270000     -33.11220000     -73.42120000
H      -45.35670000     -34.03570000     -73.04520000
H      -46.02160000     -33.20510000     -74.52410000
C      -44.42630000     -33.52330000     -70.19830000
H      -45.26870000     -33.77230000     -69.55410000
H      -44.52990000     -34.09790000     -71.13950000
C      -44.40620000     -32.00530000     -70.47230000
C      -43.97270000     -31.12800000     -69.54940000
C      -44.72240000     -31.38940000     -71.74310000
H      -43.83960000     -31.23880000     -68.47220000
C      -44.28510000     -30.06250000     -71.76970000
C      -45.28210000     -31.74550000     -73.04240000
C      -45.19040000     -30.76230000     -73.98130000
S      -43.83770000     -29.51460000     -70.18630000
S      -44.38080000     -29.32040000     -73.34050000
H      -45.61900000     -30.78020000     -75.04150000
