40
Properties=species:S:1:pos:R:3 #=T CELL(abcABC):=T 1.889726e+02=T 90.00000=T Traj:=T positionsangstrom=T Step:=T 0=T Bead:=T pbc="F F F"
C      -47.35670000     -35.05810000     -73.72970000
C      -47.98750000     -34.31430000     -72.80850000
C      -47.88730000     -32.86400000     -72.84500000
C      -47.17710000     -32.20380000     -73.83390000
C      -46.56570000     -33.01270000     -74.82490000
C      -46.63020000     -34.45190000     -74.81910000
H      -47.32920000     -36.08100000     -73.63100000
H      -48.35230000     -32.36310000     -72.00930000
H      -45.99930000     -32.51260000     -75.56720000
H      -46.11510000     -35.02270000     -75.52840000
C      -47.01810000     -30.68630000     -73.70830000
H      -47.85430000     -30.14600000     -74.14760000
H      -46.08540000     -30.33240000     -74.24570000
C      -48.87440000     -34.95270000     -71.76590000
H      -49.92720000     -34.83750000     -72.04100000
H      -48.69060000     -36.05640000     -71.81700000
S      -46.81540000     -30.02940000     -71.93020000
S      -48.47140000     -34.36690000     -70.05320000
C      -45.13890000     -30.56100000     -71.42410000
H      -44.48860000     -29.96380000     -72.08410000
H      -45.00130000     -30.35600000     -70.38600000
C      -46.64310000     -34.85830000     -70.01770000
H      -46.20960000     -34.80820000     -71.08200000
H      -46.57250000     -35.92690000     -69.78230000
C      -45.85660000     -33.92610000     -69.04300000
H      -46.10820000     -32.90060000     -69.21350000
H      -46.25130000     -34.12950000     -68.04340000
C      -44.82940000     -32.05450000     -71.73630000
H      -44.86460000     -31.99960000     -72.81830000
H      -45.66260000     -32.66440000     -71.44850000
C      -43.53090000     -32.67390000     -71.16300000
C      -42.32240000     -32.38370000     -71.66090000
C      -43.47770000     -33.71460000     -70.15620000
H      -42.04320000     -31.67540000     -72.40370000
C      -42.21390000     -34.31870000     -70.10410000
C      -44.34680000     -34.24810000     -69.19020000
C      -43.82410000     -35.33910000     -68.53390000
S      -41.03730000     -33.37460000     -70.98900000
S      -42.08730000     -35.56750000     -68.89210000
H      -44.28520000     -36.12440000     -67.98270000
