40
Properties=species:S:1:pos:R:3 #=T CELL(abcABC):=T 1.889726e+02=T 90.00000=T Traj:=T positionsangstrom=T Step:=T 0=T Bead:=T pbc="F F F"
C      -47.52620000     -35.34070000     -73.55630000
C      -48.34340000     -34.56520000     -72.70970000
C      -48.22120000     -33.17040000     -72.97600000
C      -47.44190000     -32.60000000     -73.99800000
C      -46.67830000     -33.39900000     -74.82790000
C      -46.69980000     -34.77680000     -74.53380000
H      -47.48020000     -36.40360000     -73.47270000
H      -48.60020000     -32.60050000     -72.17310000
H      -45.87020000     -32.85410000     -75.43380000
H      -46.02530000     -35.34240000     -75.10420000
C      -47.28490000     -31.07510000     -74.06710000
H      -48.27130000     -30.61440000     -74.35230000
H      -46.50430000     -30.74010000     -74.80130000
C      -49.06080000     -35.08060000     -71.48930000
H      -50.05040000     -34.62170000     -71.49030000
H      -49.18100000     -36.16030000     -71.58020000
S      -47.02350000     -30.27080000     -72.41570000
S      -48.26380000     -34.89730000     -69.83680000
C      -45.22290000     -30.68820000     -72.02420000
H      -44.57910000     -30.26260000     -72.79980000
H      -44.95910000     -30.17700000     -71.08140000
C      -46.40610000     -35.01800000     -70.05560000
H      -46.07070000     -34.45980000     -70.95130000
H      -46.19690000     -36.08670000     -70.02620000
C      -45.66260000     -34.24590000     -68.89970000
H      -46.08590000     -33.21290000     -68.91900000
H      -45.99330000     -34.83130000     -67.96900000
C      -44.99630000     -32.19610000     -71.71800000
H      -45.20190000     -32.80300000     -72.59510000
H      -45.77680000     -32.41960000     -71.04620000
C      -43.65220000     -32.53310000     -71.17500000
C      -42.47680000     -32.08600000     -71.76130000
C      -43.43060000     -33.46220000     -70.13110000
H      -42.50380000     -31.43790000     -72.65330000
C      -42.05480000     -33.55740000     -69.81850000
C      -44.18990000     -34.16700000     -69.13130000
C      -43.38250000     -34.95110000     -68.32770000
S      -41.04440000     -32.73050000     -70.97080000
S      -41.64470000     -34.87060000     -68.70920000
H      -43.81700000     -35.59790000     -67.57750000
