40
Properties=species:S:1:pos:R:3 #=T CELL(abcABC):=T 1.889726e+02=T 90.00000=T Traj:=T positionsangstrom=T Step:=T 0=T Bead:=T pbc="F F F"
C      -47.51380000     -35.38980000     -73.53050000
C      -48.26800000     -34.69380000     -72.59270000
C      -48.29590000     -33.28510000     -72.78850000
C      -47.57670000     -32.66230000     -73.83600000
C      -46.86610000     -33.39000000     -74.78990000
C      -46.77460000     -34.81040000     -74.53440000
H      -47.48290000     -36.44020000     -73.31260000
H      -49.05000000     -32.61800000     -72.29350000
H      -46.36590000     -33.01400000     -75.66700000
H      -46.23550000     -35.45380000     -75.12030000
C      -47.56540000     -31.11400000     -74.02940000
H      -48.63620000     -30.73400000     -74.17870000
H      -47.02820000     -30.78480000     -74.86280000
C      -48.99420000     -35.33250000     -71.44200000
H      -49.94820000     -34.80340000     -71.22690000
H      -49.21230000     -36.35780000     -71.54450000
S      -46.96320000     -30.24420000     -72.52520000
S      -48.09790000     -35.03610000     -69.83420000
C      -45.20730000     -30.77390000     -72.22920000
H      -44.81690000     -30.93430000     -73.26020000
H      -44.72370000     -29.96780000     -71.65090000
C      -46.31410000     -35.06290000     -70.18170000
H      -46.07680000     -34.75400000     -71.19540000
H      -45.94310000     -36.10430000     -70.06880000
C      -45.64020000     -34.23040000     -69.07370000
H      -45.99610000     -33.24040000     -69.02880000
H      -45.83280000     -34.55370000     -68.11020000
C      -45.14130000     -32.13270000     -71.46580000
H      -45.52420000     -32.96530000     -72.09410000
H      -45.76570000     -32.12930000     -70.51700000
C      -43.70590000     -32.54080000     -71.11520000
C      -42.61150000     -31.94610000     -71.74060000
C      -43.34550000     -33.49490000     -70.10740000
H      -42.77530000     -31.16970000     -72.48680000
C      -41.95820000     -33.59180000     -69.97420000
C      -44.10090000     -34.25210000     -69.16950000
C      -43.24660000     -34.85860000     -68.23410000
S      -41.14560000     -32.65240000     -71.13900000
S      -41.56600000     -34.57020000     -68.57350000
H      -43.52640000     -35.33820000     -67.33130000
