40
Properties=species:S:1:pos:R:3 #=T CELL(abcABC):=T 1.889726e+02=T 90.00000=T Traj:=T positionsangstrom=T Step:=T 0=T Bead:=T pbc="F F F"
C      -47.42870000     -35.17130000     -73.78620000
C      -47.95540000     -34.41150000     -72.73610000
C      -47.94810000     -33.02900000     -72.85660000
C      -47.21730000     -32.36400000     -73.83580000
C      -46.47270000     -33.13010000     -74.73390000
C      -46.71590000     -34.51440000     -74.76950000
H      -47.54680000     -36.25310000     -73.74390000
H      -48.43470000     -32.51360000     -72.08220000
H      -45.83570000     -32.63940000     -75.50820000
H      -46.29580000     -35.04790000     -75.55680000
C      -46.99730000     -30.92090000     -73.82420000
H      -47.84000000     -30.43600000     -74.29970000
H      -46.16100000     -30.62330000     -74.39490000
C      -48.85160000     -35.08980000     -71.65210000
H      -49.89580000     -34.91230000     -71.90180000
H      -48.69730000     -36.17090000     -71.68670000
S      -46.85220000     -30.06040000     -72.20820000
S      -48.47690000     -34.47840000     -69.96210000
C      -45.18180000     -30.56420000     -71.50220000
H      -44.39370000     -29.87390000     -71.84320000
H      -45.27510000     -30.28190000     -70.43780000
C      -46.72350000     -34.99930000     -69.79170000
H      -46.40500000     -35.27460000     -70.82050000
H      -46.62760000     -35.93300000     -69.21500000
C      -45.87060000     -33.86990000     -69.10210000
H      -46.06180000     -32.94580000     -69.65840000
H      -46.15680000     -33.77110000     -68.05140000
C      -44.79390000     -32.00770000     -71.77400000
H      -44.66900000     -32.26390000     -72.83760000
H      -45.60920000     -32.64580000     -71.41550000
C      -43.50840000     -32.44750000     -71.08460000
C      -42.28420000     -32.20340000     -71.61480000
C      -43.42250000     -33.44980000     -70.01420000
H      -42.17540000     -31.86070000     -72.64510000
C      -42.12850000     -34.07310000     -69.93600000
C      -44.37760000     -34.15650000     -69.17250000
C      -43.80080000     -35.26450000     -68.62490000
S      -41.00270000     -33.31260000     -71.01650000
S      -42.06480000     -35.42420000     -68.89140000
H      -44.26120000     -35.91460000     -67.92870000
