40
Properties=species:S:1:pos:R:3 #=T CELL(abcABC):=T 1.889726e+02=T 90.00000=T Traj:=T positionsangstrom=T Step:=T 0=T Bead:=T pbc="F F F"
C      -47.44090000     -34.80380000     -73.89620000
C      -48.20460000     -34.15240000     -72.90330000
C      -48.08690000     -32.77710000     -72.80130000
C      -47.19130000     -32.05190000     -73.65850000
C      -46.44870000     -32.71340000     -74.58560000
C      -46.55490000     -34.14430000     -74.76180000
H      -47.64370000     -35.85690000     -74.01480000
H      -48.71060000     -32.13420000     -72.17450000
H      -45.78840000     -32.13690000     -75.13180000
H      -46.01070000     -34.72060000     -75.52070000
C      -47.05890000     -30.51210000     -73.54660000
H      -47.95830000     -29.95620000     -73.81740000
H      -46.23610000     -30.24540000     -74.19780000
C      -48.94040000     -34.94350000     -71.86550000
H      -50.00770000     -34.70040000     -71.93420000
H      -48.75660000     -35.99380000     -71.90040000
S      -46.69980000     -30.12000000     -71.73450000
S      -48.49790000     -34.32960000     -70.17010000
C      -44.92670000     -30.66330000     -71.46380000
H      -44.23190000     -30.09180000     -72.12290000
H      -44.68570000     -30.41370000     -70.41300000
C      -46.69320000     -34.80890000     -70.26860000
H      -46.32480000     -34.46730000     -71.17380000
H      -46.62600000     -35.87820000     -70.17110000
C      -45.85550000     -34.17470000     -69.14130000
H      -46.16390000     -33.11320000     -68.97750000
H      -46.07180000     -34.67760000     -68.16970000
C      -44.84800000     -32.13740000     -71.66940000
H      -44.87960000     -32.65420000     -72.66950000
H      -45.66020000     -32.57790000     -71.10520000
C      -43.54760000     -32.78220000     -71.19970000
C      -42.31940000     -32.42390000     -71.66760000
C      -43.47170000     -33.86530000     -70.20780000
H      -42.25110000     -31.43950000     -72.11110000
C      -42.17260000     -34.39070000     -70.16740000
C      -44.36170000     -34.44780000     -69.25370000
C      -43.74920000     -35.38520000     -68.46510000
S      -41.02990000     -33.43450000     -71.02640000
S      -42.09570000     -35.64490000     -68.89960000
H      -44.36570000     -36.07030000     -67.82010000
