40
Properties=species:S:1:pos:R:3 #=T CELL(abcABC):=T 1.889726e+02=T 90.00000=T Traj:=T positionsangstrom=T Step:=T 0=T Bead:=T pbc="F F F"
C      -47.40640000     -33.60230000     -70.21740000
C      -47.53440000     -33.13510000     -71.55930000
C      -47.04150000     -33.83030000     -72.67140000
C      -46.48880000     -35.14630000     -72.44580000
C      -46.55050000     -35.71190000     -71.14310000
C      -46.86790000     -34.88610000     -70.02190000
H      -47.95400000     -33.00780000     -69.42460000
H      -47.26680000     -33.47380000     -73.74520000
H      -46.00320000     -36.64460000     -70.91440000
H      -46.63740000     -35.16850000     -68.98460000
C      -45.88040000     -36.00030000     -73.50300000
H      -46.69700000     -36.53500000     -74.09260000
H      -45.17870000     -36.71910000     -73.07530000
C      -48.12150000     -31.76200000     -71.89290000
H      -48.09330000     -31.63260000     -72.99670000
H      -49.16840000     -31.90020000     -71.57450000
S      -45.03780000     -35.04480000     -74.81230000
S      -47.54310000     -30.32030000     -71.03550000
C      -43.33110000     -34.77480000     -74.16780000
H      -42.99520000     -35.73000000     -73.72790000
H      -42.57390000     -34.57810000     -74.95430000
C      -46.03840000     -29.89440000     -71.95420000
H      -45.57890000     -29.00510000     -71.61990000
H      -46.24210000     -29.62450000     -72.96500000
C      -44.93320000     -31.02160000     -72.00670000
H      -45.35940000     -31.90890000     -72.59220000
H      -44.00710000     -30.67630000     -72.50600000
C      -43.22230000     -33.68040000     -73.04660000
H      -43.85250000     -32.78070000     -73.22070000
H      -42.28320000     -33.31110000     -73.11370000
C      -43.52350000     -34.08920000     -71.62030000
C      -43.17000000     -35.24210000     -71.00450000
C      -43.93490000     -33.05160000     -70.65160000
H      -42.67890000     -36.09940000     -71.54530000
C      -43.93110000     -33.56340000     -69.31610000
C      -44.56420000     -31.69810000     -70.67060000
C      -44.89980000     -31.23130000     -69.42300000
S      -43.29660000     -35.21910000     -69.29100000
S      -44.56440000     -32.45640000     -68.05500000
H      -45.21010000     -30.24520000     -69.13530000
