40
Properties=species:S:1:pos:R:3 #=T CELL(abcABC):=T 1.889726e+02=T 90.00000=T Traj:=T positionsangstrom=T Step:=T 0=T Bead:=T pbc="F F F"
C      -46.95330000     -35.54840000     -73.39920000
C      -47.87190000     -35.09830000     -72.46080000
C      -48.24630000     -33.74730000     -72.66530000
C      -47.85400000     -32.93450000     -73.70150000
C      -46.94920000     -33.47810000     -74.64020000
C      -46.49600000     -34.77130000     -74.46660000
H      -46.55350000     -36.58670000     -73.51430000
H      -48.81510000     -33.39690000     -71.77380000
H      -46.45640000     -32.81860000     -75.43030000
H      -45.82650000     -35.28820000     -75.19980000
C      -48.27270000     -31.39340000     -73.71220000
H      -49.39360000     -31.29060000     -73.41850000
H      -48.13770000     -31.00780000     -74.72060000
C      -48.24240000     -35.87030000     -71.22480000
H      -49.33500000     -36.02410000     -71.37620000
H      -47.79810000     -36.85660000     -71.18420000
S      -47.35840000     -30.39430000     -72.57130000
S      -48.06320000     -35.03020000     -69.59520000
C      -45.52840000     -31.03210000     -72.65770000
H      -45.36650000     -31.69000000     -73.55990000
H      -44.85470000     -30.17540000     -72.74530000
C      -46.22200000     -34.99230000     -69.63810000
H      -45.95500000     -34.93410000     -70.66370000
H      -45.87190000     -36.01200000     -69.29540000
C      -45.53930000     -33.87830000     -68.84390000
H      -45.98570000     -32.93270000     -69.18870000
H      -45.80900000     -34.07050000     -67.79270000
C      -45.23580000     -31.84550000     -71.42060000
H      -45.82280000     -32.71300000     -71.43460000
H      -45.45830000     -31.08950000     -70.60480000
C      -43.83280000     -32.33320000     -71.25260000
C      -42.75820000     -31.88900000     -72.00920000
C      -43.38230000     -33.19300000     -70.16520000
H      -42.73190000     -31.16680000     -72.85020000
C      -41.97500000     -33.38580000     -70.15670000
C      -44.01320000     -33.93530000     -69.06150000
C      -43.11730000     -34.63120000     -68.31320000
S      -41.20400000     -32.46780000     -71.49140000
S      -41.42890000     -34.40160000     -68.85960000
H      -43.38420000     -35.24420000     -67.48260000
