40
Properties=species:S:1:pos:R:3 #=T CELL(abcABC):=T 1.889726e+02=T 90.00000=T Traj:=T positionsangstrom=T Step:=T 0=T Bead:=T pbc="F F F"
C      -46.96040000     -35.63730000     -73.27330000
C      -47.79960000     -35.00240000     -72.34720000
C      -48.09040000     -33.65870000     -72.52540000
C      -47.64170000     -32.92510000     -73.63590000
C      -46.81290000     -33.61740000     -74.52090000
C      -46.51340000     -34.93730000     -74.38520000
H      -46.63760000     -36.68450000     -73.15910000
H      -48.81850000     -33.15430000     -71.84900000
H      -46.43990000     -33.24370000     -75.46940000
H      -45.81810000     -35.47470000     -74.96200000
C      -48.09060000     -31.49880000     -73.95490000
H      -49.12770000     -31.39980000     -73.83140000
H      -47.76530000     -31.21800000     -74.96330000
C      -48.50060000     -35.73150000     -71.24130000
H      -49.61930000     -35.75450000     -71.30030000
H      -48.20280000     -36.80460000     -71.28920000
S      -47.41200000     -30.41040000     -72.50150000
S      -47.94320000     -35.06180000     -69.63720000
C      -45.64460000     -30.91810000     -72.51460000
H      -45.50690000     -31.23680000     -73.50350000
H      -44.96640000     -30.03800000     -72.43810000
C      -46.09240000     -35.19380000     -69.69290000
H      -45.72290000     -35.13770000     -70.76370000
H      -45.71400000     -36.13280000     -69.29870000
C      -45.55450000     -34.03880000     -68.81660000
H      -46.08050000     -33.14250000     -68.99550000
H      -45.65760000     -34.21310000     -67.75000000
C      -45.31380000     -31.85560000     -71.40820000
H      -46.03160000     -32.68030000     -71.39170000
H      -45.63080000     -31.43480000     -70.45770000
C      -43.90390000     -32.32740000     -71.26320000
C      -42.86410000     -31.87330000     -72.05620000
C      -43.42070000     -33.14610000     -70.20490000
H      -42.98920000     -31.14470000     -72.89010000
C      -42.02950000     -33.26860000     -70.16400000
C      -44.01970000     -33.83770000     -69.09680000
C      -43.11950000     -34.50700000     -68.34430000
S      -41.29710000     -32.53240000     -71.56090000
S      -41.43300000     -34.25850000     -68.95960000
H      -43.25150000     -35.17560000     -67.50690000
