40
Properties=species:S:1:pos:R:3 #=T CELL(abcABC):=T 1.889726e+02=T 90.00000=T Traj:=T positionsangstrom=T Step:=T 0=T Bead:=T pbc="F F F"
C      -46.93300000     -35.86410000     -72.86540000
C      -47.89040000     -35.24270000     -72.18850000
C      -48.37340000     -33.96990000     -72.55970000
C      -47.71200000     -33.24520000     -73.58300000
C      -46.60480000     -33.87000000     -74.25780000
C      -46.23900000     -35.14960000     -73.89410000
H      -46.55610000     -36.86620000     -72.59820000
H      -49.24140000     -33.56840000     -72.06780000
H      -46.25370000     -33.21760000     -75.08930000
H      -45.29090000     -35.63440000     -74.12850000
C      -48.08580000     -31.87420000     -74.05960000
H      -49.18180000     -31.63990000     -74.11640000
H      -47.51770000     -31.70090000     -75.01760000
C      -48.42120000     -35.88620000     -70.92600000
H      -49.48420000     -35.90430000     -70.85530000
H      -48.03200000     -36.93780000     -70.93690000
S      -47.49470000     -30.52690000     -72.92130000
S      -47.97060000     -34.97500000     -69.43360000
C      -45.63360000     -30.79450000     -72.71520000
H      -45.27280000     -31.10130000     -73.67410000
H      -45.09560000     -29.87350000     -72.57390000
C      -46.14440000     -35.25690000     -69.50170000
H      -45.96190000     -35.47300000     -70.56440000
H      -45.89220000     -36.21300000     -68.98310000
C      -45.39150000     -34.00580000     -68.90090000
H      -45.92160000     -33.10350000     -69.22940000
H      -45.57050000     -33.90390000     -67.90620000
C      -45.42110000     -31.70880000     -71.51500000
H      -45.89800000     -32.67680000     -71.67540000
H      -45.82940000     -31.23810000     -70.64070000
C      -43.96740000     -32.04500000     -71.16310000
C      -42.96320000     -31.47760000     -71.92210000
C      -43.46300000     -33.06170000     -70.26360000
H      -43.03450000     -30.60260000     -72.63140000
C      -42.05160000     -33.14880000     -70.34100000
C      -43.93570000     -33.94230000     -69.28220000
C      -43.01710000     -34.71480000     -68.69380000
S      -41.29730000     -31.92690000     -71.40590000
S      -41.39500000     -34.32100000     -69.24140000
H      -43.12170000     -35.45280000     -67.90850000
