40
Properties=species:S:1:pos:R:3 #=T CELL(abcABC):=T 1.889726e+02=T 90.00000=T Traj:=T positionsangstrom=T Step:=T 0=T Bead:=T pbc="F F F"
C      -48.38200000     -32.49960000     -69.02160000
C      -47.19490000     -33.01310000     -68.41420000
C      -45.99410000     -32.29370000     -68.46610000
C      -46.03220000     -31.04390000     -69.02400000
C      -47.20810000     -30.46430000     -69.59390000
C      -48.36410000     -31.30180000     -69.65980000
H      -49.24300000     -33.18440000     -69.09800000
H      -45.14660000     -32.73400000     -68.03180000
H      -47.18000000     -29.49880000     -70.12090000
H      -49.28270000     -30.89150000     -70.17150000
C      -44.80560000     -30.16930000     -69.06580000
H      -43.90450000     -30.68180000     -68.71980000
H      -44.92180000     -29.27070000     -68.48990000
C      -47.18650000     -34.40640000     -67.80270000
H      -46.18300000     -34.66880000     -67.51960000
H      -47.97150000     -34.54640000     -67.04580000
S      -44.37460000     -29.70630000     -70.79940000
S      -47.52600000     -35.73140000     -69.16950000
C      -44.51110000     -31.19210000     -71.84890000
H      -45.55030000     -31.39790000     -72.11810000
H      -44.04100000     -30.86130000     -72.79990000
C      -46.15420000     -35.64470000     -70.37390000
H      -46.14390000     -36.68050000     -70.76060000
H      -45.27400000     -35.62130000     -69.80990000
C      -46.34330000     -34.46940000     -71.32890000
H      -47.41540000     -34.38110000     -71.50270000
H      -45.98300000     -33.52540000     -70.92000000
C      -43.80520000     -32.34150000     -71.23360000
H      -44.42120000     -32.81480000     -70.54760000
H      -42.88520000     -31.98670000     -70.77590000
C      -43.36660000     -33.36210000     -72.31080000
C      -42.19660000     -33.27730000     -73.06830000
C      -44.24520000     -34.41790000     -72.82510000
H      -41.33520000     -32.69540000     -72.85730000
C      -43.71510000     -34.98430000     -73.96180000
C      -45.64520000     -34.72080000     -72.62790000
C      -46.11100000     -35.57470000     -73.61590000
S      -42.10010000     -34.47590000     -74.42850000
S      -44.81720000     -36.03930000     -74.79750000
H      -47.03510000     -36.07850000     -73.76250000
