40
Properties=species:S:1:pos:R:3 #=T CELL(abcABC):=T 1.889726e+02=T 90.00000=T Traj:=T positionsangstrom=T Step:=T 0=T Bead:=T pbc="F F F"
C      -48.40840000     -32.48950000     -68.14310000
C      -47.19730000     -33.23700000     -68.22810000
C      -45.96450000     -32.49850000     -68.44280000
C      -46.03720000     -31.12500000     -68.79720000
C      -47.22160000     -30.39760000     -68.89100000
C      -48.40590000     -31.18580000     -68.62170000
H      -49.40000000     -32.97740000     -68.10410000
H      -45.00740000     -32.99840000     -68.49100000
H      -47.21600000     -29.38580000     -69.29590000
H      -49.36370000     -30.60190000     -68.70270000
C      -44.74100000     -30.39880000     -69.03790000
H      -43.88180000     -31.06500000     -68.77520000
H      -44.71010000     -29.56170000     -68.32080000
C      -47.18640000     -34.69190000     -67.85190000
H      -46.18380000     -34.93680000     -67.44750000
H      -47.91540000     -34.75730000     -66.97020000
S      -44.57890000     -29.67240000     -70.74530000
S      -47.61230000     -35.84250000     -69.23520000
C      -44.60130000     -31.30180000     -71.69480000
H      -45.53280000     -31.79610000     -71.44710000
H      -44.58960000     -31.00810000     -72.74060000
C      -46.21710000     -35.65930000     -70.42770000
H      -46.16520000     -36.62150000     -70.93740000
H      -45.31600000     -35.42430000     -69.84490000
C      -46.42610000     -34.56570000     -71.56300000
H      -47.49600000     -34.66080000     -71.79820000
H      -46.08130000     -33.54100000     -71.21540000
C      -43.33780000     -32.29000000     -71.43790000
H      -43.46410000     -32.84350000     -70.51830000
H      -42.37540000     -31.67340000     -71.33820000
C      -43.22850000     -33.21100000     -72.63910000
C      -42.09170000     -33.12040000     -73.40750000
C      -44.13840000     -34.27850000     -73.08180000
H      -41.16240000     -32.59460000     -73.13660000
C      -43.68130000     -34.85400000     -74.25770000
C      -45.50370000     -34.81160000     -72.76290000
C      -45.95540000     -35.75240000     -73.65360000
S      -42.18100000     -34.24220000     -74.79940000
S      -44.82740000     -35.89900000     -74.97620000
H      -46.84190000     -36.27210000     -73.64860000
