40
Properties=species:S:1:pos:R:3 #=T CELL(abcABC):=T 1.889726e+02=T 90.00000=T Traj:=T positionsangstrom=T Step:=T 0=T Bead:=T pbc="F F F"
C      -45.16180000     -30.66400000     -68.92230000
C      -46.49960000     -30.53270000     -69.47770000
C      -47.43330000     -31.54170000     -69.26640000
C      -47.08350000     -32.65520000     -68.43030000
C      -45.82370000     -32.63230000     -67.83650000
C      -44.85860000     -31.65900000     -68.00800000
H      -44.41830000     -29.90210000     -69.07250000
H      -48.48650000     -31.37780000     -69.61630000
H      -45.45310000     -33.57950000     -67.46370000
H      -43.87000000     -31.71990000     -67.52730000
C      -47.93700000     -33.91720000     -68.39210000
H      -48.90450000     -33.79360000     -67.89640000
H      -47.35370000     -34.75040000     -67.88210000
C      -46.70890000     -29.42710000     -70.40940000
H      -47.75960000     -28.92820000     -70.42250000
H      -46.09200000     -28.51350000     -70.33890000
S      -48.33660000     -34.65430000     -70.06890000
S      -46.67030000     -30.02900000     -72.11660000
C      -46.68560000     -35.24280000     -70.53580000
H      -45.87570000     -34.58250000     -70.28670000
H      -46.36540000     -36.09920000     -69.98810000
C      -45.02580000     -30.86660000     -72.41250000
H      -44.22950000     -30.30750000     -71.80730000
H      -44.89490000     -30.65180000     -73.48640000
C      -45.16380000     -32.32080000     -72.09150000
H      -45.37930000     -32.47940000     -71.02750000
H      -46.12400000     -32.67090000     -72.58990000
C      -46.53870000     -35.47870000     -72.04510000
H      -46.83380000     -34.55850000     -72.54930000
H      -47.24540000     -36.30640000     -72.35070000
C      -45.13000000     -35.80320000     -72.50040000
C      -44.65870000     -37.02520000     -72.86040000
C      -44.11550000     -34.76750000     -72.67840000
H      -45.02240000     -38.00160000     -72.87760000
C      -42.91540000     -35.26610000     -73.07500000
C      -44.10490000     -33.27530000     -72.57350000
C      -42.87040000     -32.80970000     -72.97860000
S      -42.95640000     -37.02300000     -73.29860000
S      -41.71570000     -34.02860000     -73.45690000
H      -42.54740000     -31.79610000     -72.95860000
