40
Properties=species:S:1:pos:R:3 #=T CELL(abcABC):=T 1.889726e+02=T 90.00000=T Traj:=T positionsangstrom=T Step:=T 0=T Bead:=T pbc="F F F"
C      -47.08250000     -36.07740000     -72.92060000
C      -48.05230000     -35.26960000     -72.29510000
C      -48.18410000     -33.94000000     -72.77150000
C      -47.55670000     -33.49040000     -73.92640000
C      -46.79210000     -34.44840000     -74.69340000
C      -46.57450000     -35.70180000     -74.16940000
H      -46.88280000     -37.05980000     -72.51990000
H      -48.80340000     -33.25560000     -72.20770000
H      -46.41680000     -34.15960000     -75.69820000
H      -45.84920000     -36.28740000     -74.74900000
C      -47.69990000     -32.02850000     -74.34850000
H      -48.73150000     -31.94380000     -74.63220000
H      -46.96830000     -31.66240000     -75.07840000
C      -48.74880000     -35.57380000     -70.93920000
H      -49.62110000     -34.90850000     -70.92380000
H      -49.03680000     -36.62040000     -70.64990000
S      -47.55460000     -30.86680000     -72.94220000
S      -47.79880000     -35.13920000     -69.38520000
C      -45.79380000     -30.94930000     -72.47940000
H      -45.21640000     -31.57520000     -73.16780000
H      -45.39930000     -29.90330000     -72.53570000
C      -46.06450000     -34.84740000     -69.97390000
H      -46.21370000     -34.39050000     -70.94310000
H      -45.46800000     -35.79980000     -70.06420000
C      -45.39920000     -33.99530000     -68.91310000
H      -45.96710000     -33.11260000     -68.85060000
H      -45.47500000     -34.39680000     -67.87820000
C      -45.41390000     -31.45710000     -71.06260000
H      -45.85950000     -32.44440000     -70.99290000
H      -45.83010000     -30.82910000     -70.21420000
C      -43.90530000     -31.75760000     -70.95100000
C      -42.89280000     -31.13460000     -71.59140000
C      -43.41660000     -32.90260000     -70.16460000
H      -43.15970000     -30.31170000     -72.26870000
C      -42.01690000     -32.91780000     -70.19250000
C      -43.94550000     -33.84960000     -69.25780000
C      -42.99410000     -34.61980000     -68.62010000
S      -41.29730000     -31.72570000     -71.24230000
S      -41.37010000     -34.16060000     -69.17130000
H      -43.21560000     -35.45770000     -67.93200000
