40
Properties=species:S:1:pos:R:3 #=T CELL(abcABC):=T 1.889726e+02=T 90.00000=T Traj:=T positionsangstrom=T Step:=T 0=T Bead:=T pbc="F F F"
C      -47.57790000     -35.47740000     -73.80560000
C      -47.39920000     -34.09820000     -73.93220000
C      -46.18670000     -33.48030000     -74.36320000
C      -45.13090000     -34.35550000     -74.60540000
C      -45.29360000     -35.79010000     -74.50090000
C      -46.55630000     -36.30100000     -74.23630000
H      -48.54660000     -35.89560000     -73.46150000
H      -46.08820000     -32.37440000     -74.54280000
H      -44.48240000     -36.37830000     -74.70810000
H      -46.66050000     -37.36820000     -74.21070000
C      -43.90330000     -33.73790000     -75.17140000
H      -44.06180000     -32.67780000     -75.36330000
H      -43.65080000     -34.30370000     -76.07880000
C      -48.56530000     -33.18540000     -73.48040000
H      -48.66030000     -32.25470000     -74.12430000
H      -49.39470000     -33.85440000     -73.52410000
S      -42.44070000     -33.59620000     -74.09250000
S      -48.56970000     -32.56940000     -71.71460000
C      -42.97520000     -32.62460000     -72.60500000
H      -42.06720000     -32.01400000     -72.37900000
H      -43.87480000     -31.98540000     -72.80730000
C      -47.99730000     -34.13440000     -70.86080000
H      -48.29670000     -35.03980000     -71.37110000
H      -48.53820000     -34.13770000     -69.90060000
C      -46.47300000     -34.30550000     -70.49320000
H      -46.31600000     -35.43070000     -70.29140000
H      -45.83000000     -33.99980000     -71.37830000
C      -43.21960000     -33.68980000     -71.42180000
H      -42.28900000     -34.26400000     -71.33330000
H      -43.98440000     -34.33260000     -71.81650000
C      -43.48390000     -32.98050000     -70.08950000
C      -42.47200000     -32.22940000     -69.49590000
C      -44.64630000     -32.98810000     -69.23380000
H      -41.44810000     -32.13110000     -69.92570000
C      -44.46450000     -32.38080000     -67.99960000
C      -46.02390000     -33.56520000     -69.31970000
C      -46.77110000     -33.26100000     -68.21820000
S      -42.87750000     -31.67380000     -67.88300000
S      -45.78890000     -32.43990000     -66.90820000
H      -47.67780000     -33.80280000     -67.89040000
