40
Properties=species:S:1:pos:R:3 #=T CELL(abcABC):=T 1.889726e+02=T 90.00000=T Traj:=T positionsangstrom=T Step:=T 0=T Bead:=T pbc="F F F"
C      -48.41580000     -32.50320000     -68.55930000
C      -47.16830000     -33.11850000     -68.27430000
C      -46.00550000     -32.41360000     -68.44960000
C      -46.08990000     -31.05250000     -68.99880000
C      -47.31130000     -30.46620000     -69.39560000
C      -48.46570000     -31.19280000     -69.07200000
H      -49.31440000     -33.05300000     -68.41720000
H      -44.96830000     -32.72500000     -68.13370000
H      -47.30230000     -29.42000000     -69.66190000
H      -49.39200000     -30.83180000     -69.36550000
C      -44.78940000     -30.29770000     -69.01310000
H      -43.92770000     -30.79000000     -68.53420000
H      -44.93120000     -29.39070000     -68.41730000
C      -47.00930000     -34.55530000     -67.87040000
H      -45.94310000     -34.81310000     -67.61190000
H      -47.64230000     -34.88470000     -67.05270000
S      -44.46370000     -29.58080000     -70.70160000
S      -47.50340000     -35.74440000     -69.32780000
C      -44.51520000     -31.10680000     -71.85310000
H      -45.53850000     -31.45090000     -71.96690000
H      -44.12670000     -30.74580000     -72.78200000
C      -46.07270000     -35.64450000     -70.38870000
H      -46.00130000     -36.62160000     -70.91430000
H      -45.09290000     -35.41410000     -69.89120000
C      -46.22980000     -34.47550000     -71.40780000
H      -47.28970000     -34.43170000     -71.63720000
H      -46.00980000     -33.47100000     -71.04880000
C      -43.66600000     -32.29090000     -71.43010000
H      -44.20580000     -32.79850000     -70.57260000
H      -42.72090000     -31.99300000     -71.01460000
C      -43.35930000     -33.31960000     -72.47810000
C      -42.14500000     -33.20530000     -73.16940000
C      -44.23460000     -34.33320000     -73.03340000
H      -41.45220000     -32.36910000     -73.22790000
C      -43.71790000     -35.04760000     -74.07130000
C      -45.56650000     -34.79240000     -72.70180000
C      -46.08330000     -35.70280000     -73.60710000
S      -42.11570000     -34.41300000     -74.55390000
S      -44.92010000     -36.09340000     -74.82490000
H      -47.12140000     -36.10760000     -73.60600000
