40
Properties=species:S:1:pos:R:3 #=T CELL(abcABC):=T 1.889726e+02=T 90.00000=T Traj:=T positionsangstrom=T Step:=T 0=T Bead:=T pbc="F F F"
C      -46.35010000     -36.42170000     -70.47180000
C      -45.00380000     -36.55540000     -70.92900000
C      -43.94420000     -36.04110000     -70.18640000
C      -44.23910000     -35.23480000     -69.09330000
C      -45.62330000     -34.97950000     -68.76000000
C      -46.68760000     -35.67600000     -69.35680000
H      -47.12610000     -37.02130000     -70.95230000
H      -42.89140000     -36.20760000     -70.51200000
H      -45.65150000     -34.43530000     -67.77060000
H      -47.68690000     -35.65330000     -69.02870000
C      -43.14080000     -34.70390000     -68.21330000
H      -42.45150000     -35.48890000     -68.06930000
H      -43.58660000     -34.50600000     -67.28160000
C      -44.76550000     -37.42090000     -72.12510000
H      -43.85690000     -38.06920000     -71.92720000
H      -45.54090000     -38.08720000     -72.30520000
S      -42.18120000     -33.26000000     -68.77520000
S      -44.35290000     -36.46210000     -73.72680000
C      -43.43940000     -32.08720000     -69.28040000
H      -44.28140000     -32.13650000     -68.51050000
H      -42.95730000     -31.08890000     -69.29230000
C      -44.51980000     -34.60370000     -73.46200000
H      -44.12950000     -34.20930000     -74.44330000
H      -43.80250000     -34.21130000     -72.67620000
C      -45.99770000     -34.23530000     -73.16560000
H      -46.65840000     -34.80880000     -73.81930000
H      -46.46790000     -34.64750000     -72.18170000
C      -44.02010000     -32.28430000     -70.64690000
H      -44.30080000     -33.33280000     -70.82270000
H      -43.17140000     -32.12320000     -71.37420000
C      -45.21040000     -31.42250000     -71.02270000
C      -45.42030000     -30.20530000     -70.41420000
C      -46.16210000     -31.71510000     -72.08420000
H      -44.81910000     -29.89130000     -69.58410000
C      -47.10640000     -30.66330000     -72.20940000
C      -46.43470000     -32.73070000     -73.13710000
C      -47.47200000     -32.39520000     -73.96080000
S      -46.82320000     -29.30690000     -71.12100000
S      -48.13220000     -30.74520000     -73.64570000
H      -47.74960000     -32.97200000     -74.82760000
