40
Properties=species:S:1:pos:R:3 #=T CELL(abcABC):=T 1.889726e+02=T 90.00000=T Traj:=T positionsangstrom=T Step:=T 0=T Bead:=T pbc="F F F"
C      -46.38560000     -36.16360000     -70.39060000
C      -45.10850000     -36.51680000     -70.88950000
C      -43.93010000     -36.15670000     -70.25520000
C      -44.03800000     -35.35050000     -69.09740000
C      -45.31380000     -35.03640000     -68.58650000
C      -46.47180000     -35.40530000     -69.23850000
H      -47.27540000     -36.44950000     -70.94100000
H      -42.98640000     -36.43140000     -70.60310000
H      -45.45230000     -34.39630000     -67.70120000
H      -47.38180000     -35.07450000     -68.91190000
C      -42.88380000     -34.86850000     -68.33960000
H      -41.95800000     -35.59770000     -68.39250000
H      -43.19710000     -34.72590000     -67.25740000
C      -45.05050000     -37.26070000     -72.18150000
H      -44.47570000     -38.19350000     -72.10920000
H      -46.12120000     -37.48460000     -72.45600000
S      -42.10570000     -33.25030000     -69.00970000
S      -44.13430000     -36.22900000     -73.47870000
C      -43.60820000     -32.12860000     -69.33520000
H      -44.21200000     -32.18800000     -68.48220000
H      -43.17630000     -31.06460000     -69.30280000
C      -44.63480000     -34.51420000     -73.26100000
H      -44.55350000     -34.03920000     -74.23180000
H      -43.95920000     -33.99870000     -72.64720000
C      -46.15430000     -34.24730000     -72.88280000
H      -46.76260000     -34.94030000     -73.37970000
H      -46.21470000     -34.48880000     -71.78940000
C      -44.32550000     -32.49040000     -70.60130000
H      -44.67870000     -33.49490000     -70.49510000
H      -43.59060000     -32.51070000     -71.39160000
C      -45.47200000     -31.56750000     -70.90920000
C      -45.70130000     -30.40730000     -70.25960000
C      -46.24140000     -31.74070000     -72.11370000
H      -45.22720000     -30.14350000     -69.29380000
C      -47.00830000     -30.62830000     -72.42350000
C      -46.59060000     -32.81320000     -73.09840000
C      -47.38160000     -32.36560000     -74.07640000
S      -46.97060000     -29.48490000     -71.13800000
S      -47.93530000     -30.72330000     -73.89610000
H      -47.74750000     -33.02490000     -74.82260000
