40
Properties=species:S:1:pos:R:3 #=T CELL(abcABC):=T 1.889726e+02=T 90.00000=T Traj:=T positionsangstrom=T Step:=T 0=T Bead:=T pbc="F F F"
C      -47.98610000     -32.85330000     -67.92800000
C      -46.71970000     -33.44380000     -67.92480000
C      -45.59850000     -32.63590000     -68.10180000
C      -45.64390000     -31.25470000     -68.24530000
C      -46.95840000     -30.66200000     -68.15250000
C      -48.07710000     -31.46960000     -67.92180000
H      -48.86750000     -33.55050000     -67.66210000
H      -44.62440000     -33.12710000     -68.24100000
H      -46.96450000     -29.59260000     -68.15090000
H      -49.11980000     -31.01770000     -67.93490000
C      -44.47560000     -30.38720000     -68.76410000
H      -43.49970000     -30.96960000     -68.66670000
H      -44.50030000     -29.41650000     -68.33550000
C      -46.73930000     -34.94180000     -67.78190000
H      -45.66830000     -35.38600000     -67.70490000
H      -47.32060000     -35.31370000     -66.96170000
S      -44.63280000     -29.90380000     -70.60760000
S      -47.37260000     -35.91940000     -69.28370000
C      -45.00750000     -31.55130000     -71.46700000
H      -45.79690000     -31.94040000     -70.81120000
H      -45.48870000     -31.29590000     -72.38870000
C      -46.02850000     -35.81670000     -70.63650000
H      -45.94750000     -36.70300000     -71.26330000
H      -44.99410000     -35.63840000     -70.20970000
C      -46.42770000     -34.67310000     -71.64120000
H      -47.57830000     -34.68710000     -71.73300000
H      -46.27840000     -33.71480000     -71.16350000
C      -43.74180000     -32.46480000     -71.44540000
H      -43.94020000     -33.10250000     -70.52380000
H      -42.92090000     -31.74570000     -71.21720000
C      -43.54030000     -33.15780000     -72.78970000
C      -42.57930000     -32.66200000     -73.69540000
C      -44.39620000     -34.10320000     -73.35430000
H      -41.98150000     -31.80460000     -73.55520000
C      -43.91950000     -34.50460000     -74.62070000
C      -45.62080000     -34.76350000     -72.99790000
C      -46.00480000     -35.68420000     -73.86620000
S      -42.61230000     -33.49530000     -75.26220000
S      -44.92430000     -35.81710000     -75.28310000
H      -46.78990000     -36.44160000     -73.68610000
