40
Properties=species:S:1:pos:R:3 #=T CELL(abcABC):=T 1.889726e+02=T 90.00000=T Traj:=T positionsangstrom=T Step:=T 0=T Bead:=T pbc="F F F"
C      -46.34790000     -36.03830000     -70.06290000
C      -45.19850000     -36.34600000     -70.76840000
C      -43.94040000     -36.03840000     -70.16130000
C      -43.89520000     -35.49930000     -68.86520000
C      -45.05260000     -35.15410000     -68.20210000
C      -46.30490000     -35.39470000     -68.80620000
H      -47.31730000     -36.34630000     -70.35150000
H      -43.05820000     -36.17110000     -70.68990000
H      -45.18540000     -34.70540000     -67.27620000
H      -47.18970000     -35.03400000     -68.26900000
C      -42.58340000     -34.96970000     -68.43230000
H      -41.68560000     -35.49360000     -68.71650000
H      -42.56770000     -34.86890000     -67.36210000
C      -45.11680000     -36.92050000     -72.20900000
H      -44.73470000     -37.93760000     -72.21960000
H      -46.15280000     -36.94340000     -72.64620000
S      -42.19050000     -33.30160000     -69.14530000
S      -43.99030000     -36.20690000     -73.41450000
C      -43.85160000     -32.43300000     -69.16580000
H      -44.52360000     -32.69680000     -68.32800000
H      -43.69550000     -31.34860000     -68.98790000
C      -44.50110000     -34.32650000     -73.54840000
H      -44.13740000     -34.05420000     -74.53180000
H      -43.94910000     -33.79100000     -72.76580000
C      -45.96660000     -34.24490000     -73.28770000
H      -46.45600000     -34.72360000     -74.12850000
H      -46.26940000     -34.69710000     -72.32190000
C      -44.58680000     -32.64250000     -70.48940000
H      -45.05080000     -33.65000000     -70.47800000
H      -43.90580000     -32.59880000     -71.36720000
C      -45.73600000     -31.64690000     -70.88720000
C      -46.08090000     -30.50540000     -70.23600000
C      -46.33530000     -31.75340000     -72.16420000
H      -45.72390000     -30.04850000     -69.31110000
C      -47.08100000     -30.62990000     -72.50300000
C      -46.52050000     -32.75850000     -73.23440000
C      -47.30010000     -32.34620000     -74.22930000
S      -47.03880000     -29.49740000     -71.18880000
S      -47.88120000     -30.69180000     -74.01310000
H      -47.61630000     -32.97090000     -75.03150000
