40
Properties=species:S:1:pos:R:3 #=T CELL(abcABC):=T 1.889726e+02=T 90.00000=T Traj:=T positionsangstrom=T Step:=T 0=T Bead:=T pbc="F F F"
C      -46.02510000     -36.99370000     -69.51200000
C      -45.09420000     -36.54700000     -70.48340000
C      -44.00510000     -35.83160000     -70.02710000
C      -43.85980000     -35.42240000     -68.73970000
C      -44.76380000     -35.87080000     -67.75530000
C      -45.86280000     -36.63300000     -68.19100000
H      -46.81270000     -37.71870000     -69.83650000
H      -43.15310000     -35.60150000     -70.62070000
H      -44.72620000     -35.52340000     -66.65160000
H      -46.53560000     -37.01860000     -67.38900000
C      -42.66720000     -34.66200000     -68.23430000
H      -41.74560000     -35.14930000     -68.51720000
H      -42.67030000     -34.60120000     -67.14010000
C      -45.22870000     -36.87430000     -71.94480000
H      -45.08780000     -37.95200000     -72.13590000
H      -46.25870000     -36.62860000     -72.15950000
S      -42.30750000     -33.01310000     -69.06440000
S      -44.16510000     -36.16250000     -73.18940000
C      -44.04320000     -32.21190000     -69.18090000
H      -44.65100000     -32.45640000     -68.32030000
H      -43.79090000     -31.11290000     -69.11130000
C      -44.64540000     -34.35090000     -73.39000000
H      -44.23860000     -33.93390000     -74.34120000
H      -44.23170000     -33.79230000     -72.53710000
C      -46.15160000     -34.13920000     -73.36550000
H      -46.65240000     -34.78630000     -74.11310000
H      -46.53490000     -34.52850000     -72.44920000
C      -44.62500000     -32.49390000     -70.59680000
H      -44.97950000     -33.50850000     -70.56810000
H      -43.77590000     -32.40300000     -71.28770000
C      -45.79310000     -31.61860000     -71.14660000
C      -46.17530000     -30.44640000     -70.43790000
C      -46.44490000     -31.76010000     -72.46330000
H      -45.92760000     -30.26620000     -69.34820000
C      -47.10290000     -30.55650000     -72.72440000
C      -46.51380000     -32.69730000     -73.54930000
C      -47.22500000     -32.21660000     -74.64310000
S      -47.10380000     -29.34410000     -71.47620000
S      -47.58750000     -30.49600000     -74.44250000
H      -47.49770000     -32.79880000     -75.52460000
