40
Properties=species:S:1:pos:R:3 #=T CELL(abcABC):=T 1.889726e+02=T 90.00000=T Traj:=T positionsangstrom=T Step:=T 0=T Bead:=T pbc="F F F"
C      -45.19880000     -30.58220000     -68.83870000
C      -46.41790000     -30.62540000     -69.55120000
C      -47.35950000     -31.60940000     -69.29210000
C      -46.99660000     -32.74370000     -68.56040000
C      -45.67320000     -32.82530000     -68.08220000
C      -44.84690000     -31.69160000     -68.11780000
H      -44.55780000     -29.64320000     -68.86940000
H      -48.29570000     -31.47940000     -69.83250000
H      -45.38710000     -33.60060000     -67.41180000
H      -43.87330000     -31.73990000     -67.68480000
C      -48.04110000     -33.76830000     -68.36280000
H      -48.97360000     -33.28040000     -68.08340000
H      -47.75410000     -34.49800000     -67.58740000
C      -46.78810000     -29.39920000     -70.42190000
H      -47.81480000     -29.20340000     -70.41870000
H      -46.28830000     -28.52830000     -70.00550000
S      -48.38270000     -34.82010000     -69.88070000
S      -46.56320000     -29.78370000     -72.21630000
C      -46.62010000     -35.34550000     -70.35080000
H      -46.01520000     -34.48290000     -70.05810000
H      -46.48450000     -36.33810000     -69.86620000
C      -45.08830000     -30.91470000     -72.25720000
H      -44.26180000     -30.73310000     -71.60020000
H      -44.69940000     -30.82920000     -73.26750000
C      -45.28080000     -32.38760000     -72.08570000
H      -45.49550000     -32.62520000     -71.06180000
H      -46.11510000     -32.73430000     -72.67560000
C      -46.51450000     -35.68990000     -71.82020000
H      -47.04880000     -34.91770000     -72.46190000
H      -46.90360000     -36.72000000     -71.94290000
C      -45.06630000     -35.79170000     -72.34700000
C      -44.60650000     -37.04710000     -72.57880000
C      -44.20090000     -34.66440000     -72.75230000
H      -45.05430000     -37.93530000     -72.22650000
C      -42.96120000     -35.20970000     -73.27700000
C      -44.12770000     -33.18260000     -72.63560000
C      -42.86590000     -32.74260000     -73.03910000
S      -42.95870000     -36.95640000     -73.36390000
S      -41.77280000     -34.01980000     -73.59270000
H      -42.61480000     -31.65690000     -72.97550000
