40
Properties=species:S:1:pos:R:3 #=T CELL(abcABC):=T 1.889726e+02=T 90.00000=T Traj:=T positionsangstrom=T Step:=T 0=T Bead:=T pbc="F F F"
C      -47.13800000     -33.92120000     -74.99420000
C      -46.00650000     -33.12110000     -74.74900000
C      -44.85270000     -33.78930000     -74.21800000
C      -44.75270000     -35.18220000     -74.06370000
C      -45.88350000     -35.96040000     -74.42040000
C      -46.98990000     -35.32420000     -74.95350000
H      -48.11160000     -33.49730000     -75.27770000
H      -44.02030000     -33.15580000     -74.01830000
H      -45.91480000     -37.05320000     -74.18920000
H      -47.85090000     -35.96090000     -75.11550000
C      -43.40440000     -35.81380000     -73.67600000
H      -42.63420000     -35.08510000     -73.54590000
H      -43.07830000     -36.60880000     -74.44660000
C      -46.06230000     -31.70890000     -74.94210000
H      -45.26310000     -31.40510000     -75.54190000
H      -46.92760000     -31.40320000     -75.45560000
S      -43.37450000     -36.83350000     -72.05150000
S      -46.00410000     -30.76890000     -73.23720000
C      -43.08290000     -35.69220000     -70.59940000
H      -43.35120000     -36.30810000     -69.74640000
H      -42.00440000     -35.35820000     -70.64140000
C      -47.33150000     -31.69610000     -72.37230000
H      -48.17000000     -32.05880000     -73.07510000
H      -47.99660000     -31.04830000     -71.71590000
C      -46.73350000     -32.78560000     -71.48980000
H      -47.39030000     -33.65470000     -71.35070000
H      -45.88340000     -33.18060000     -72.02730000
C      -43.98840000     -34.45670000     -70.71140000
H      -45.02020000     -34.74600000     -71.11330000
H      -43.51060000     -33.73320000     -71.40190000
C      -44.20950000     -33.69220000     -69.37550000
C      -43.45790000     -33.74680000     -68.25860000
C      -45.35980000     -32.77290000     -69.22310000
H      -42.39690000     -34.10300000     -68.10830000
C      -45.39660000     -32.32470000     -67.93960000
C      -46.44730000     -32.29260000     -70.11140000
C      -47.20680000     -31.32890000     -69.42970000
S      -44.11910000     -32.82740000     -66.91180000
S      -46.62430000     -31.05750000     -67.71950000
H      -48.13480000     -30.90680000     -69.71670000
