40
Properties=species:S:1:pos:R:3 #=T CELL(abcABC):=T 1.889726e+02=T 90.00000=T Traj:=T positionsangstrom=T Step:=T 0=T Bead:=T pbc="F F F"
C      -45.12620000     -30.69700000     -68.97060000
C      -46.38720000     -30.64200000     -69.53630000
C      -47.38720000     -31.63540000     -69.35430000
C      -47.08470000     -32.71820000     -68.54670000
C      -45.80130000     -32.78370000     -67.93170000
C      -44.79740000     -31.85480000     -68.19920000
H      -44.37500000     -29.88880000     -69.09370000
H      -48.32410000     -31.50430000     -69.84540000
H      -45.63140000     -33.62550000     -67.29530000
H      -43.80280000     -31.96900000     -67.81390000
C      -47.97400000     -33.86520000     -68.30800000
H      -48.98790000     -33.41690000     -68.01550000
H      -47.61380000     -34.42360000     -67.41890000
C      -46.66630000     -29.42010000     -70.38050000
H      -47.65350000     -29.06080000     -70.28100000
H      -45.87310000     -28.66230000     -69.99280000
S      -48.18520000     -34.93250000     -69.79440000
S      -46.50340000     -29.79460000     -72.18840000
C      -46.50770000     -35.42620000     -70.37250000
H      -45.83870000     -34.62170000     -70.01870000
H      -46.10430000     -36.34960000     -69.85600000
C      -45.06490000     -30.85680000     -72.29300000
H      -44.33330000     -30.58690000     -71.55170000
H      -44.57050000     -30.47060000     -73.21330000
C      -45.39450000     -32.32030000     -72.26950000
H      -45.71770000     -32.55250000     -71.24370000
H      -46.20730000     -32.57700000     -72.97970000
C      -46.49520000     -35.54430000     -71.88100000
H      -46.92390000     -34.70460000     -72.28590000
H      -47.22910000     -36.23210000     -72.18890000
C      -45.08490000     -35.75630000     -72.36210000
C      -44.58440000     -37.01020000     -72.60590000
C      -44.22930000     -34.62280000     -72.60090000
H      -44.99100000     -37.99990000     -72.40760000
C      -42.99550000     -35.12970000     -73.13520000
C      -44.24480000     -33.22140000     -72.61020000
C      -43.08600000     -32.70020000     -73.16800000
S      -42.98520000     -36.93610000     -73.27700000
S      -41.92480000     -33.94560000     -73.71440000
H      -42.90150000     -31.57690000     -73.20760000
