40
Properties=species:S:1:pos:R:3 #=T CELL(abcABC):=T 1.889726e+02=T 90.00000=T Traj:=T positionsangstrom=T Step:=T 0=T Bead:=T pbc="F F F"
C      -46.40310000     -34.03950000     -75.71300000
C      -45.37790000     -33.42560000     -75.03960000
C      -44.56640000     -34.26140000     -74.22090000
C      -44.77140000     -35.67550000     -74.05020000
C      -45.75740000     -36.24000000     -74.85740000
C      -46.52870000     -35.44050000     -75.65410000
H      -47.04520000     -33.41900000     -76.32030000
H      -43.79800000     -33.69970000     -73.66340000
H      -46.06100000     -37.25340000     -74.87570000
H      -47.21290000     -35.94430000     -76.28170000
C      -44.08570000     -36.42790000     -72.97870000
H      -43.22220000     -35.95190000     -72.56260000
H      -43.87670000     -37.38900000     -73.44710000
C      -45.06450000     -31.96160000     -75.17730000
H      -44.13370000     -31.91940000     -75.71150000
H      -45.89250000     -31.44120000     -75.70540000
S      -45.06530000     -36.86260000     -71.49550000
S      -44.77910000     -30.95290000     -73.54330000
C      -44.93770000     -35.47230000     -70.36160000
H      -44.21940000     -35.79020000     -69.59240000
H      -44.51610000     -34.58800000     -70.93600000
C      -46.34050000     -31.47880000     -72.73440000
H      -47.01290000     -31.88030000     -73.43610000
H      -46.84700000     -30.61230000     -72.24630000
C      -46.10650000     -32.48190000     -71.63360000
H      -47.14220000     -32.83930000     -71.45950000
H      -45.52020000     -33.33960000     -72.11010000
C      -46.21790000     -35.04050000     -69.61690000
H      -46.62560000     -35.93310000     -69.07880000
H      -47.02930000     -34.77440000     -70.35010000
C      -45.93430000     -34.01290000     -68.59300000
C      -45.93580000     -34.15430000     -67.24220000
C      -45.54920000     -32.66180000     -69.02530000
H      -46.15190000     -35.12430000     -66.71830000
C      -45.11480000     -31.85790000     -67.95900000
C      -45.45950000     -31.95960000     -70.33220000
C      -44.75540000     -30.76210000     -70.19380000
S      -45.41350000     -32.65100000     -66.44860000
S      -44.53830000     -30.28200000     -68.51830000
H      -44.54070000     -30.08710000     -70.98860000
