40
Properties=species:S:1:pos:R:3 #=T CELL(abcABC):=T 1.889726e+02=T 90.00000=T Traj:=T positionsangstrom=T Step:=T 0=T Bead:=T pbc="F F F"
C      -45.77350000     -34.38470000     -75.95240000
C      -44.86340000     -33.86760000     -74.96840000
C      -44.48550000     -34.70650000     -73.92080000
C      -45.07100000     -35.95740000     -73.82470000
C      -46.06730000     -36.36850000     -74.74700000
C      -46.38020000     -35.62580000     -75.87120000
H      -46.00490000     -33.81240000     -76.87030000
H      -43.75910000     -34.50010000     -73.11550000
H      -46.68890000     -37.23860000     -74.49320000
H      -47.19950000     -35.95200000     -76.51110000
C      -44.62060000     -36.88020000     -72.64680000
H      -43.66220000     -36.48930000     -72.27080000
H      -44.60000000     -37.92980000     -72.93400000
C      -44.46490000     -32.39980000     -75.23620000
H      -43.54580000     -32.45710000     -75.72390000
H      -45.28390000     -32.03020000     -75.89340000
S      -45.93370000     -36.81330000     -71.33530000
S      -44.21680000     -31.38910000     -73.72880000
C      -45.29080000     -35.43430000     -70.35880000
H      -44.64540000     -35.80480000     -69.55690000
H      -44.69150000     -34.79310000     -71.06360000
C      -45.90570000     -31.46670000     -72.91960000
H      -46.61190000     -31.81350000     -73.68250000
H      -46.18390000     -30.40680000     -72.70000000
C      -45.96490000     -32.25040000     -71.58810000
H      -46.98320000     -32.63510000     -71.56760000
H      -45.30170000     -33.10380000     -71.69920000
C      -46.48340000     -34.71990000     -69.65540000
H      -46.91790000     -35.46010000     -69.00560000
H      -47.21190000     -34.28330000     -70.35350000
C      -45.99450000     -33.70160000     -68.67360000
C      -45.74540000     -33.94480000     -67.37520000
C      -45.65590000     -32.30650000     -69.02880000
H      -45.92810000     -34.77060000     -66.78670000
C      -45.20930000     -31.54830000     -67.97770000
C      -45.61050000     -31.54510000     -70.29170000
C      -45.06390000     -30.26670000     -70.17320000
S      -45.10730000     -32.55110000     -66.52080000
S      -44.65590000     -29.95550000     -68.49760000
H      -44.94320000     -29.51590000     -70.88200000
