40
Properties=species:S:1:pos:R:3 #=T CELL(abcABC):=T 1.889726e+02=T 90.00000=T Traj:=T positionsangstrom=T Step:=T 0=T Bead:=T pbc="F F F"
C      -46.88400000     -36.54430000     -72.94830000
C      -47.49280000     -36.11630000     -71.76270000
C      -48.32410000     -34.99180000     -71.72290000
C      -48.49860000     -34.20350000     -72.84230000
C      -47.93750000     -34.66090000     -74.08150000
C      -47.14320000     -35.80780000     -74.08570000
H      -46.21960000     -37.39430000     -72.94640000
H      -48.77060000     -34.58600000     -70.84170000
H      -48.17240000     -34.15120000     -74.93980000
H      -46.77920000     -36.15150000     -75.16000000
C      -49.19520000     -32.90310000     -72.69580000
H      -50.21000000     -33.02010000     -72.31740000
H      -49.26970000     -32.36060000     -73.61080000
C      -47.21570000     -36.85420000     -70.42470000
H      -48.19340000     -37.20930000     -70.08060000
H      -46.53730000     -37.72950000     -70.58870000
S      -48.38230000     -31.89150000     -71.31030000
S      -46.49360000     -35.62540000     -69.23070000
C      -46.61380000     -32.02430000     -71.67870000
H      -46.38250000     -33.10090000     -71.60080000
H      -46.38240000     -31.66140000     -72.69800000
C      -44.82230000     -35.19590000     -70.02800000
H      -44.90500000     -34.85590000     -71.11440000
H      -44.21890000     -36.12150000     -70.02420000
C      -44.16510000     -34.14830000     -69.18550000
H      -44.84490000     -33.40280000     -68.87910000
H      -43.76100000     -34.49760000     -68.19680000
C      -45.86950000     -31.28560000     -70.60340000
H      -46.00640000     -31.68270000     -69.64040000
H      -46.21190000     -30.22560000     -70.55170000
C      -44.39720000     -31.22460000     -70.95900000
C      -44.02770000     -30.24480000     -71.82610000
C      -43.25830000     -32.15640000     -70.66880000
H      -44.79120000     -29.58590000     -72.32090000
C      -42.12500000     -31.77970000     -71.34190000
C      -43.03820000     -33.38040000     -69.86930000
C      -41.81960000     -33.90490000     -70.07320000
S      -42.31670000     -30.33570000     -72.38850000
S      -40.74960000     -32.84860000     -70.92960000
H      -41.45070000     -34.89060000     -69.68680000
