40
Properties=species:S:1:pos:R:3 #=T CELL(abcABC):=T 1.889726e+02=T 90.00000=T Traj:=T positionsangstrom=T Step:=T 0=T Bead:=T pbc="F F F"
C      -44.76860000     -34.71070000     -75.21880000
C      -43.95210000     -34.83840000     -74.11050000
C      -44.23540000     -35.78810000     -73.12290000
C      -45.24620000     -36.68360000     -73.18460000
C      -46.03930000     -36.64640000     -74.28270000
C      -45.80160000     -35.64930000     -75.34180000
H      -44.55570000     -33.95870000     -76.00690000
H      -43.51350000     -35.79630000     -72.32410000
H      -46.92430000     -37.28210000     -74.37540000
H      -46.53700000     -35.65520000     -76.10970000
C      -45.51500000     -37.53920000     -72.04770000
H      -44.62160000     -37.95660000     -71.63150000
H      -46.00280000     -38.45270000     -72.37670000
C      -42.97120000     -33.81920000     -73.77360000
H      -42.06920000     -34.31090000     -73.26600000
H      -42.69800000     -33.31010000     -74.66590000
S      -46.55330000     -36.77990000     -70.75820000
S      -43.64480000     -32.62700000     -72.53870000
C      -46.00190000     -34.96050000     -70.52160000
H      -44.99560000     -34.98730000     -70.06710000
H      -45.94670000     -34.56240000     -71.54660000
C      -45.15280000     -31.89630000     -73.40150000
H      -45.38800000     -32.53160000     -74.29300000
H      -44.89060000     -30.85950000     -73.74300000
C      -46.29930000     -31.91140000     -72.43190000
H      -47.22770000     -31.37370000     -72.79890000
H      -46.69800000     -32.96060000     -72.30190000
C      -46.93650000     -34.12850000     -69.69000000
H      -47.35350000     -34.72970000     -68.86990000
H      -47.69960000     -33.68480000     -70.29420000
C      -46.30150000     -32.96730000     -69.07460000
C      -45.99270000     -32.97270000     -67.75610000
C      -45.91030000     -31.75350000     -69.74180000
H      -46.18980000     -33.73430000     -67.08050000
C      -45.26650000     -30.86760000     -68.90920000
C      -45.89580000     -31.26740000     -71.12680000
C      -45.28700000     -30.01630000     -71.25170000
S      -45.33660000     -31.41490000     -67.23700000
S      -44.83200000     -29.41530000     -69.66840000
H      -45.27140000     -29.45100000     -72.18950000
