40
Properties=species:S:1:pos:R:3 #=T CELL(abcABC):=T 1.889726e+02=T 90.00000=T Traj:=T positionsangstrom=T Step:=T 0=T Bead:=T pbc="F F F"
C      -47.39170000     -33.21970000     -67.13840000
C      -46.23860000     -33.69490000     -67.78530000
C      -45.25740000     -32.85750000     -68.24380000
C      -45.34850000     -31.48520000     -68.13330000
C      -46.48990000     -31.01350000     -67.51120000
C      -47.52050000     -31.81200000     -66.99910000
H      -48.18690000     -33.96430000     -66.90690000
H      -44.38720000     -33.31160000     -68.77830000
H      -46.67070000     -29.95660000     -67.24640000
H      -48.44170000     -31.41400000     -66.60400000
C      -44.11870000     -30.55510000     -68.64710000
H      -43.41430000     -30.29370000     -67.81460000
H      -44.52830000     -29.56710000     -68.87730000
C      -45.86900000     -35.11820000     -67.62750000
H      -44.85600000     -35.17360000     -67.24990000
H      -46.58140000     -35.63920000     -66.92780000
S      -43.00190000     -31.21890000     -69.94940000
S      -45.96360000     -36.25600000     -69.13220000
C      -43.88170000     -31.39270000     -71.47520000
H      -44.89360000     -31.70710000     -71.35980000
H      -43.86090000     -30.46290000     -72.05240000
C      -45.00160000     -35.49550000     -70.55090000
H      -44.66460000     -36.32910000     -71.18740000
H      -44.08260000     -34.99810000     -70.20860000
C      -46.04770000     -34.63910000     -71.31610000
H      -47.05980000     -35.02650000     -71.00620000
H      -45.96140000     -33.55590000     -70.99120000
C      -43.29510000     -32.53650000     -72.26920000
H      -43.15580000     -33.44890000     -71.70980000
H      -42.21670000     -32.20180000     -72.55830000
C      -43.97290000     -32.86340000     -73.59300000
C      -43.52260000     -32.44740000     -74.81000000
C      -45.14730000     -33.73880000     -73.70380000
H      -42.63780000     -31.82920000     -74.90020000
C      -45.51610000     -33.89700000     -75.05150000
C      -45.98640000     -34.58270000     -72.79680000
C      -46.96870000     -35.27110000     -73.51800000
S      -44.51670000     -32.95580000     -76.21250000
S      -47.04520000     -34.88280000     -75.22660000
H      -47.86220000     -35.78760000     -73.11360000
