40
Properties=species:S:1:pos:R:3 #=T CELL(abcABC):=T 1.889726e+02=T 90.00000=T Traj:=T positionsangstrom=T Step:=T 0=T Bead:=T pbc="F F F"
C      -44.32470000     -35.69870000     -75.10610000
C      -43.86250000     -35.28020000     -73.84310000
C      -44.29500000     -35.98640000     -72.72790000
C      -45.34040000     -36.89910000     -72.78450000
C      -45.84390000     -37.16300000     -74.10320000
C      -45.34080000     -36.57760000     -75.22830000
H      -43.97330000     -35.10720000     -75.97060000
H      -43.91750000     -35.69760000     -71.72740000
H      -46.77330000     -37.72260000     -74.20210000
H      -45.80690000     -36.70090000     -76.16550000
C      -46.04640000     -37.54900000     -71.56650000
H      -45.31920000     -37.79900000     -70.75020000
H      -46.32470000     -38.56880000     -71.85330000
C      -42.82250000     -34.23990000     -73.75700000
H      -42.02870000     -34.69740000     -73.20840000
H      -42.42660000     -34.04100000     -74.78000000
S      -47.27800000     -36.35660000     -70.92340000
S      -43.13280000     -32.63500000     -72.88490000
C      -46.30480000     -35.26890000     -69.87480000
H      -46.13960000     -35.76980000     -68.92270000
H      -45.36890000     -34.93750000     -70.42030000
C      -44.80350000     -32.03160000     -73.48760000
H      -45.05340000     -32.67260000     -74.26280000
H      -44.57140000     -31.09920000     -73.89260000
C      -45.94350000     -32.05940000     -72.39050000
H      -46.86040000     -31.93240000     -72.95480000
H      -46.07520000     -33.08570000     -71.97780000
C      -47.15030000     -33.92160000     -69.67920000
H      -47.98410000     -34.14460000     -68.93210000
H      -47.49120000     -33.67590000     -70.62100000
C      -46.33350000     -32.76490000     -69.16020000
C      -46.07860000     -32.56720000     -67.84830000
C      -45.88350000     -31.54750000     -69.90450000
H      -46.61540000     -33.27170000     -67.10730000
C      -45.46210000     -30.55620000     -69.03880000
C      -45.79810000     -31.07650000     -71.29820000
C      -45.25630000     -29.81340000     -71.44460000
S      -45.38480000     -31.06510000     -67.36620000
S      -44.84690000     -29.07030000     -69.80210000
H      -45.21950000     -29.19550000     -72.34740000
