40
Properties=species:S:1:pos:R:3 #=T CELL(abcABC):=T 1.889726e+02=T 90.00000=T Traj:=T positionsangstrom=T Step:=T 0=T Bead:=T pbc="F F F"
C      -44.60120000     -35.04320000     -75.19960000
C      -43.92010000     -35.03910000     -74.00230000
C      -44.19080000     -35.92330000     -72.90050000
C      -45.29500000     -36.75780000     -73.03010000
C      -45.98860000     -36.73570000     -74.22310000
C      -45.70520000     -35.94470000     -75.36650000
H      -44.30270000     -34.27240000     -75.89370000
H      -43.61320000     -35.89020000     -72.00720000
H      -46.82380000     -37.46190000     -74.28280000
H      -46.26580000     -35.94580000     -76.34590000
C      -45.70210000     -37.67770000     -71.85430000
H      -44.87350000     -37.90170000     -71.17220000
H      -46.28650000     -38.62070000     -72.11060000
C      -42.87910000     -33.91150000     -73.80830000
H      -41.86240000     -34.15540000     -73.46020000
H      -42.62020000     -33.40220000     -74.71310000
S      -46.98250000     -36.70690000     -70.80250000
S      -43.43150000     -32.58740000     -72.49850000
C      -46.11670000     -35.08460000     -70.51800000
H      -45.13130000     -35.22300000     -70.00530000
H      -45.86460000     -34.67680000     -71.47570000
C      -44.94340000     -31.99590000     -73.35230000
H      -45.06220000     -32.65000000     -74.22330000
H      -44.69310000     -31.09700000     -73.78200000
C      -46.18300000     -31.86620000     -72.50220000
H      -46.84780000     -31.28840000     -73.12490000
H      -46.51260000     -32.82670000     -72.32140000
C      -46.93540000     -34.15340000     -69.66420000
H      -47.25360000     -34.73410000     -68.74890000
H      -47.80320000     -33.89580000     -70.38610000
C      -46.33120000     -32.84690000     -69.19710000
C      -46.17540000     -32.76390000     -67.82970000
C      -45.88960000     -31.67650000     -69.85710000
H      -46.17750000     -33.63280000     -67.20330000
C      -45.27600000     -30.76490000     -68.96900000
C      -45.83480000     -31.13270000     -71.23590000
C      -45.32950000     -29.80570000     -71.25450000
S      -45.37240000     -31.32390000     -67.34300000
S      -44.73210000     -29.31490000     -69.66080000
H      -45.05720000     -29.16410000     -72.08490000
