40
Properties=species:S:1:pos:R:3 #=T CELL(abcABC):=T 1.889726e+02=T 90.00000=T Traj:=T positionsangstrom=T Step:=T 0=T Bead:=T pbc="F F F"
C      -46.93370000     -33.28090000     -68.01380000
C      -45.63230000     -33.61830000     -68.34270000
C      -44.63430000     -32.67340000     -68.44300000
C      -44.89750000     -31.31160000     -68.31920000
C      -46.23680000     -30.94220000     -68.01980000
C      -47.22310000     -31.90260000     -67.78630000
H      -47.76220000     -34.04170000     -67.81750000
H      -43.60070000     -33.07830000     -68.78750000
H      -46.46060000     -29.90940000     -67.80520000
H      -48.23520000     -31.63580000     -67.64240000
C      -43.87650000     -30.29240000     -68.71240000
H      -43.21700000     -30.11580000     -67.86200000
H      -44.28490000     -29.31740000     -68.96730000
C      -45.12260000     -35.03280000     -68.27010000
H      -44.12980000     -35.11370000     -68.64850000
H      -45.10890000     -35.39260000     -67.20280000
S      -42.84630000     -30.69500000     -70.14820000
S      -46.26790000     -36.34800000     -69.04870000
C      -44.05360000     -31.45360000     -71.27200000
H      -45.06580000     -31.62470000     -70.80640000
H      -44.14600000     -30.75000000     -72.12570000
C      -46.08240000     -35.86360000     -70.81920000
H      -46.62130000     -36.49890000     -71.59740000
H      -44.97880000     -35.92240000     -71.07510000
C      -46.49180000     -34.40930000     -71.08110000
H      -47.44770000     -34.21350000     -70.55380000
H      -45.72680000     -33.74940000     -70.69500000
C      -43.49070000     -32.78120000     -71.78350000
H      -43.67280000     -33.48090000     -70.98090000
H      -42.47060000     -32.56190000     -71.92930000
C      -44.11310000     -33.18370000     -73.07250000
C      -43.40800000     -33.07910000     -74.27080000
C      -45.39040000     -33.75860000     -73.35830000
H      -42.44810000     -32.55990000     -74.28040000
C      -45.65560000     -33.99300000     -74.73350000
C      -46.51820000     -34.23370000     -72.60380000
C      -47.55020000     -34.68900000     -73.36630000
S      -44.30990000     -33.57780000     -75.72400000
S      -47.18680000     -34.73270000     -75.12010000
H      -48.56970000     -34.87280000     -72.89020000
