40
Properties=species:S:1:pos:R:3 #=T CELL(abcABC):=T 1.889726e+02=T 90.00000=T Traj:=T positionsangstrom=T Step:=T 0=T Bead:=T pbc="F F F"
C      -45.83050000     -30.49990000     -73.32760000
C      -45.69410000     -30.20660000     -71.95720000
C      -46.74870000     -30.58220000     -71.12420000
C      -47.91310000     -31.22680000     -71.60720000
C      -47.94140000     -31.50370000     -72.97590000
C      -46.87160000     -31.20080000     -73.85620000
H      -45.05940000     -30.20230000     -74.02420000
H      -46.65090000     -30.35450000     -70.03340000
H      -48.85950000     -31.98810000     -73.39070000
H      -46.99410000     -31.46300000     -74.85600000
C      -49.06730000     -31.66170000     -70.77000000
H      -49.97900000     -31.36930000     -71.30840000
H      -48.89600000     -31.18800000     -69.80000000
C      -44.55680000     -29.40690000     -71.37560000
H      -44.54260000     -28.31710000     -71.74900000
H      -44.70650000     -29.33400000     -70.24710000
S      -49.30390000     -33.43480000     -70.60010000
S      -42.90170000     -30.12480000     -71.98050000
C      -47.66420000     -34.17880000     -70.15840000
H      -47.12670000     -33.56610000     -69.38550000
H      -47.87080000     -35.11790000     -69.64810000
C      -43.18490000     -31.97070000     -71.97210000
H      -42.15130000     -32.27930000     -72.17560000
H      -43.91310000     -32.32520000     -72.76130000
C      -43.68350000     -32.59300000     -70.71800000
H      -43.23270000     -32.16520000     -69.81270000
H      -44.73650000     -32.49550000     -70.68200000
C      -46.79590000     -34.37610000     -71.44480000
H      -46.25050000     -33.33760000     -71.67990000
H      -47.50140000     -34.59600000     -72.18370000
C      -45.71160000     -35.40550000     -71.23550000
C      -46.09930000     -36.74760000     -71.22040000
C      -44.28340000     -35.14600000     -70.94620000
H      -47.04370000     -37.21140000     -71.63760000
C      -43.62200000     -36.39910000     -70.78370000
C      -43.35030000     -34.07130000     -70.64850000
C      -42.10340000     -34.49290000     -70.34690000
S      -44.65150000     -37.79510000     -71.01500000
S      -41.92260000     -36.23660000     -70.38080000
H      -41.27570000     -33.88400000     -70.01870000
