40
Properties=species:S:1:pos:R:3 #=T CELL(abcABC):=T 1.889726e+02=T 90.00000=T Traj:=T positionsangstrom=T Step:=T 0=T Bead:=T pbc="F F F"
C      -46.81640000     -33.27450000     -67.88260000
C      -45.47900000     -33.67780000     -68.20850000
C      -44.50750000     -32.72910000     -68.34680000
C      -44.92200000     -31.30870000     -68.29970000
C      -46.21600000     -31.01050000     -68.10560000
C      -47.23890000     -31.94680000     -67.87310000
H      -47.60290000     -34.03530000     -67.68910000
H      -43.35470000     -32.96230000     -68.43600000
H      -46.45990000     -29.99200000     -68.09860000
H      -48.28760000     -31.61030000     -67.73460000
C      -43.89570000     -30.25320000     -68.59520000
H      -43.25060000     -30.28670000     -67.71520000
H      -44.37510000     -29.23300000     -68.72380000
C      -45.11820000     -35.10600000     -68.25470000
H      -44.24510000     -35.10760000     -68.89130000
H      -44.76680000     -35.65250000     -67.33590000
S      -42.96040000     -30.61750000     -70.18810000
S      -46.33820000     -36.28480000     -68.97700000
C      -43.99240000     -31.47990000     -71.43250000
H      -45.05400000     -31.31360000     -71.24010000
H      -43.83690000     -30.97730000     -72.34900000
C      -46.11150000     -36.01390000     -70.79440000
H      -46.70730000     -36.84530000     -71.17840000
H      -45.11330000     -36.27510000     -71.00380000
C      -46.64550000     -34.62740000     -71.18700000
H      -47.68940000     -34.58590000     -70.91290000
H      -46.16270000     -33.84980000     -70.55010000
C      -43.58250000     -32.95340000     -71.61670000
H      -44.05790000     -33.69660000     -70.89660000
H      -42.54330000     -33.24530000     -71.55620000
C      -44.08780000     -33.40530000     -73.03360000
C      -43.34410000     -33.15230000     -74.17030000
C      -45.34300000     -33.99100000     -73.40830000
H      -42.29280000     -32.78780000     -74.16800000
C      -45.59290000     -33.89750000     -74.79610000
C      -46.55210000     -34.36460000     -72.71250000
C      -47.61540000     -34.52360000     -73.50790000
S      -44.12930000     -33.64840000     -75.65840000
S      -47.26140000     -34.26680000     -75.23830000
H      -48.63130000     -34.93670000     -73.03650000
