40
Properties=species:S:1:pos:R:3 #=T CELL(abcABC):=T 1.889726e+02=T 90.00000=T Traj:=T positionsangstrom=T Step:=T 0=T Bead:=T pbc="F F F"
C      -46.84300000     -33.23190000     -67.76650000
C      -45.58760000     -33.69510000     -68.21150000
C      -44.60630000     -32.71650000     -68.57400000
C      -45.00000000     -31.35560000     -68.70880000
C      -46.33450000     -31.01610000     -68.37220000
C      -47.26150000     -31.92540000     -67.92640000
H      -47.55620000     -33.99410000     -67.49490000
H      -43.64260000     -33.06330000     -68.76370000
H      -46.66180000     -29.93870000     -68.46630000
H      -48.27530000     -31.51850000     -67.77530000
C      -43.98370000     -30.28510000     -69.10480000
H      -43.33440000     -29.70670000     -68.40670000
H      -44.62080000     -29.42030000     -69.46380000
C      -45.28980000     -35.12970000     -68.06200000
H      -44.29770000     -35.42880000     -68.44180000
H      -45.32590000     -35.38170000     -67.00010000
S      -42.74600000     -30.84810000     -70.30740000
S      -46.49330000     -36.23260000     -69.09560000
C      -43.96690000     -31.67510000     -71.49170000
H      -44.93560000     -31.39250000     -71.24670000
H      -43.75240000     -31.25270000     -72.50560000
C      -46.01430000     -35.61130000     -70.72330000
H      -46.15080000     -36.37610000     -71.48390000
H      -44.90610000     -35.35070000     -70.70550000
C      -46.81700000     -34.32940000     -71.11990000
H      -47.82820000     -34.39170000     -70.88030000
H      -46.40610000     -33.47920000     -70.63970000
C      -43.68810000     -33.18260000     -71.49660000
H      -44.28210000     -33.56810000     -70.73340000
H      -42.63520000     -33.40970000     -71.32790000
C      -44.02350000     -33.68620000     -72.83960000
C      -43.20010000     -33.46200000     -73.89280000
C      -45.37380000     -33.86220000     -73.27650000
H      -42.16210000     -33.21740000     -73.80950000
C      -45.49450000     -33.97040000     -74.64810000
C      -46.65620000     -34.13950000     -72.61390000
C      -47.67580000     -34.28190000     -73.47370000
S      -44.00570000     -33.71160000     -75.42450000
S      -47.12480000     -34.14810000     -75.17580000
H      -48.81320000     -34.49370000     -73.31760000
