40
Properties=species:S:1:pos:R:3 #=T CELL(abcABC):=T 1.889726e+02=T 90.00000=T Traj:=T positionsangstrom=T Step:=T 0=T Bead:=T pbc="F F F"
C      -46.96100000     -33.32480000     -67.32710000
C      -45.63690000     -33.79050000     -67.59730000
C      -44.80620000     -32.76610000     -68.12650000
C      -45.18290000     -31.39750000     -68.29030000
C      -46.46520000     -31.01500000     -67.92800000
C      -47.39780000     -31.98930000     -67.42730000
H      -47.68960000     -34.13810000     -66.87760000
H      -43.83110000     -33.10530000     -68.32480000
H      -46.86800000     -30.06650000     -68.09370000
H      -48.36070000     -31.67160000     -67.05290000
C      -44.13300000     -30.38830000     -68.71880000
H      -43.44120000     -30.09210000     -67.86020000
H      -44.68540000     -29.50110000     -69.00100000
C      -45.39420000     -35.30290000     -67.67560000
H      -44.34970000     -35.52130000     -67.88390000
H      -45.64960000     -35.80980000     -66.73300000
S      -42.90440000     -31.06560000     -69.88090000
S      -46.45870000     -36.06310000     -69.00250000
C      -43.85710000     -31.35380000     -71.48310000
H      -44.93680000     -31.34630000     -71.29070000
H      -43.69960000     -30.59210000     -72.17350000
C      -45.51210000     -35.52510000     -70.47660000
H      -45.28380000     -36.39910000     -71.06910000
H      -44.63400000     -35.25020000     -70.05540000
C      -46.20290000     -34.51180000     -71.29760000
H      -47.26560000     -34.56670000     -71.01580000
H      -45.90810000     -33.52000000     -70.87310000
C      -43.42610000     -32.66640000     -72.14640000
H      -43.61560000     -33.42410000     -71.33690000
H      -42.36640000     -32.76460000     -72.25240000
C      -44.06140000     -32.90460000     -73.53850000
C      -43.63360000     -32.47280000     -74.74310000
C      -45.23480000     -33.75310000     -73.63850000
H      -42.69080000     -32.02000000     -75.01030000
C      -45.67440000     -33.90090000     -75.00490000
C      -46.05650000     -34.59770000     -72.80240000
C      -46.94360000     -35.34230000     -73.52780000
S      -44.63370000     -32.98240000     -76.13300000
S      -46.92050000     -35.02270000     -75.27240000
H      -47.63340000     -36.03520000     -73.06140000
