40
Properties=species:S:1:pos:R:3 #=T CELL(abcABC):=T 1.889726e+02=T 90.00000=T Traj:=T positionsangstrom=T Step:=T 0=T Bead:=T pbc="F F F"
C      -47.08630000     -33.17640000     -67.81820000
C      -45.75570000     -33.63720000     -67.97700000
C      -44.78170000     -32.71450000     -68.31370000
C      -45.09700000     -31.34210000     -68.49320000
C      -46.42100000     -30.93430000     -68.31670000
C      -47.41570000     -31.87830000     -68.02460000
H      -47.84540000     -33.83090000     -67.33440000
H      -43.81040000     -33.02430000     -68.51700000
H      -46.75750000     -29.81650000     -68.34660000
H      -48.49560000     -31.64990000     -67.81650000
C      -44.03280000     -30.33060000     -68.81840000
H      -43.33610000     -30.20100000     -68.01090000
H      -44.60960000     -29.43480000     -69.07940000
C      -45.41090000     -35.08820000     -67.90400000
H      -44.41240000     -35.31090000     -68.26520000
H      -45.47910000     -35.44910000     -66.85350000
S      -42.76510000     -30.78830000     -70.14730000
S      -46.44110000     -36.11280000     -68.96830000
C      -43.59230000     -31.63440000     -71.52060000
H      -44.69030000     -31.53390000     -71.44010000
H      -43.29530000     -31.13000000     -72.45580000
C      -46.25720000     -35.59480000     -70.78080000
H      -46.90970000     -36.28800000     -71.25840000
H      -45.29980000     -35.94020000     -71.04940000
C      -46.66100000     -34.19550000     -71.18070000
H      -47.72460000     -34.09330000     -70.80650000
H      -46.02930000     -33.40130000     -70.67200000
C      -43.40300000     -33.18190000     -71.71150000
H      -43.85270000     -33.79020000     -70.88840000
H      -42.33620000     -33.48900000     -71.61820000
C      -43.91890000     -33.56800000     -73.04500000
C      -43.11070000     -33.71060000     -74.14550000
C      -45.28750000     -33.87550000     -73.39680000
H      -42.06690000     -33.50450000     -74.12880000
C      -45.47980000     -34.04590000     -74.73130000
C      -46.56480000     -33.96660000     -72.67850000
C      -47.63170000     -34.12010000     -73.54280000
S      -43.98810000     -33.98300000     -75.63850000
S      -47.13750000     -34.24120000     -75.22680000
H      -48.76230000     -34.30090000     -73.47630000
