40
Properties=species:S:1:pos:R:3 #=T CELL(abcABC):=T 1.889726e+02=T 90.00000=T Traj:=T positionsangstrom=T Step:=T 0=T Bead:=T pbc="F F F"
C      -45.05170000     -35.87960000     -74.43120000
C      -44.14260000     -35.99710000     -73.36320000
C      -44.55240000     -36.32300000     -72.03500000
C      -45.95730000     -36.61010000     -71.82390000
C      -46.82560000     -36.58430000     -72.93410000
C      -46.40340000     -36.14340000     -74.18070000
H      -44.58740000     -35.66730000     -75.42800000
H      -43.77890000     -36.41980000     -71.24210000
H      -47.82240000     -36.88880000     -72.76600000
H      -47.01570000     -35.88330000     -75.04120000
C      -46.48760000     -36.87430000     -70.44810000
H      -45.74930000     -36.72140000     -69.68920000
H      -46.60530000     -37.97390000     -70.27820000
C      -42.65930000     -35.55500000     -73.65050000
H      -41.88470000     -36.15830000     -73.27200000
H      -42.61550000     -35.53090000     -74.72970000
S      -48.03030000     -36.05930000     -70.09340000
S      -42.19280000     -34.00260000     -72.82300000
C      -47.39880000     -34.41120000     -69.61470000
H      -48.04180000     -34.01890000     -68.79840000
H      -46.44430000     -34.48570000     -69.14030000
C      -43.35740000     -32.82510000     -73.55100000
H      -43.67650000     -33.21150000     -74.49730000
H      -42.90320000     -31.79920000     -73.63390000
C      -44.63250000     -32.52370000     -72.70240000
H      -45.48660000     -32.15710000     -73.36530000
H      -44.94230000     -33.41180000     -72.19210000
C      -47.22940000     -33.34190000     -70.74940000
H      -48.25630000     -33.25970000     -71.27950000
H      -46.51690000     -33.67140000     -71.42800000
C      -46.80720000     -31.89910000     -70.21370000
C      -47.48600000     -31.16110000     -69.24780000
C      -45.55360000     -31.24310000     -70.56950000
H      -48.56190000     -31.28280000     -68.87920000
C      -45.29700000     -30.13640000     -69.78290000
C      -44.50260000     -31.53860000     -71.55450000
C      -43.42340000     -30.72960000     -71.37150000
S      -46.50650000     -29.91070000     -68.55980000
S      -43.60300000     -29.63900000     -69.96240000
H      -42.46340000     -30.74910000     -71.88650000
