40
Properties=species:S:1:pos:R:3 #=T CELL(abcABC):=T 1.889726e+02=T 90.00000=T Traj:=T positionsangstrom=T Step:=T 0=T Bead:=T pbc="F F F"
C      -47.19710000     -32.70850000     -67.63370000
C      -46.01120000     -33.48150000     -67.61370000
C      -44.86510000     -32.73940000     -67.98480000
C      -44.98200000     -31.40400000     -68.49890000
C      -46.20650000     -30.69740000     -68.50970000
C      -47.28400000     -31.37980000     -68.00190000
H      -48.13970000     -33.20760000     -67.51200000
H      -43.90620000     -33.22010000     -68.13650000
H      -46.32660000     -29.72260000     -68.99940000
H      -48.21500000     -30.79710000     -67.95200000
C      -43.75570000     -30.63760000     -69.08860000
H      -43.06880000     -30.24250000     -68.26720000
H      -44.04300000     -29.70480000     -69.59850000
C      -46.12020000     -35.01210000     -67.33900000
H      -45.13290000     -35.36790000     -67.09690000
H      -46.83530000     -35.20740000     -66.52510000
S      -42.47980000     -31.41620000     -70.18580000
S      -46.99350000     -35.88260000     -68.83660000
C      -43.36310000     -31.63010000     -71.74600000
H      -44.35090000     -31.22670000     -71.82970000
H      -42.93740000     -31.03410000     -72.53750000
C      -45.84640000     -35.54030000     -70.31060000
H      -45.85340000     -36.44070000     -70.98270000
H      -44.80370000     -35.40640000     -69.93920000
C      -46.30540000     -34.26540000     -71.09260000
H      -47.32440000     -33.96080000     -70.64720000
H      -45.64050000     -33.45650000     -70.76850000
C      -43.22780000     -33.11880000     -72.09460000
H      -43.63970000     -33.78760000     -71.34220000
H      -42.18880000     -33.45530000     -72.07450000
C      -43.87550000     -33.42980000     -73.39610000
C      -43.19560000     -33.11730000     -74.54310000
C      -45.25870000     -33.90250000     -73.50760000
H      -42.12910000     -32.71990000     -74.60330000
C      -45.50220000     -33.99740000     -74.84740000
C      -46.33650000     -34.39280000     -72.61620000
C      -47.44600000     -34.77520000     -73.39550000
S      -44.18820000     -33.55580000     -75.92570000
S      -47.18600000     -34.61770000     -75.10620000
H      -48.22060000     -35.30270000     -73.00950000
