40
Properties=species:S:1:pos:R:3 #=T CELL(abcABC):=T 1.889726e+02=T 90.00000=T Traj:=T positionsangstrom=T Step:=T 0=T Bead:=T pbc="F F F"
C      -47.01410000     -32.56330000     -68.50220000
C      -45.86370000     -33.35730000     -68.17720000
C      -44.57210000     -32.70050000     -68.15820000
C      -44.49570000     -31.33950000     -68.63780000
C      -45.65850000     -30.60580000     -68.92050000
C      -46.90640000     -31.27050000     -68.92450000
H      -48.01500000     -33.07780000     -68.59340000
H      -43.70650000     -33.15830000     -67.73350000
H      -45.49680000     -29.60520000     -69.37280000
H      -47.78750000     -30.62380000     -69.09510000
C      -43.16150000     -30.62580000     -68.80100000
H      -42.57230000     -30.72460000     -67.93110000
H      -43.31600000     -29.57010000     -68.97030000
C      -46.10660000     -34.70510000     -67.53850000
H      -45.16250000     -35.12290000     -67.26760000
H      -46.71430000     -34.56740000     -66.66100000
S      -42.07080000     -31.45570000     -70.07880000
S      -47.06800000     -35.91710000     -68.69310000
C      -42.91390000     -31.75740000     -71.64860000
H      -43.04540000     -30.79160000     -72.14930000
H      -42.27690000     -32.38810000     -72.20470000
C      -46.23990000     -35.79160000     -70.39390000
H      -46.27810000     -36.79000000     -70.89260000
H      -45.16220000     -35.63090000     -70.14800000
C      -46.94390000     -34.75000000     -71.16570000
H      -48.07270000     -35.02500000     -71.08840000
H      -46.73680000     -33.81100000     -70.69380000
C      -44.26850000     -32.59710000     -71.56230000
H      -45.14100000     -32.02170000     -71.12860000
H      -44.15910000     -33.51660000     -70.96140000
C      -44.53670000     -33.01690000     -72.97030000
C      -43.76380000     -32.62660000     -74.03090000
C      -45.54930000     -33.94460000     -73.33100000
H      -43.01400000     -31.87090000     -73.92820000
C      -45.64110000     -34.04570000     -74.72440000
C      -46.62580000     -34.61690000     -72.62400000
C      -47.45590000     -35.19390000     -73.54190000
S      -44.24460000     -33.29530000     -75.52100000
S      -47.04580000     -35.07590000     -75.21650000
H      -48.22660000     -35.92330000     -73.25860000
