40
Properties=species:S:1:pos:R:3 #=T CELL(abcABC):=T 1.889726e+02=T 90.00000=T Traj:=T positionsangstrom=T Step:=T 0=T Bead:=T pbc="F F F"
C      -47.07160000     -32.51840000     -67.37780000
C      -45.92410000     -33.18670000     -67.73710000
C      -44.92400000     -32.54380000     -68.48090000
C      -45.11190000     -31.18680000     -68.89000000
C      -46.23950000     -30.49830000     -68.50990000
C      -47.26200000     -31.21850000     -67.77930000
H      -47.92810000     -33.02340000     -66.85100000
H      -44.04190000     -33.11710000     -68.70720000
H      -46.45120000     -29.43980000     -68.83250000
H      -48.09710000     -30.61420000     -67.55860000
C      -44.14200000     -30.53740000     -69.86570000
H      -44.05120000     -29.51590000     -69.51450000
H      -44.64780000     -30.59760000     -70.79390000
C      -45.82950000     -34.66360000     -67.58040000
H      -44.84910000     -35.07060000     -67.91130000
H      -46.07350000     -34.99270000     -66.54720000
S      -42.43510000     -31.12010000     -70.11500000
S      -47.13540000     -35.48160000     -68.64020000
C      -42.57040000     -32.05860000     -71.66460000
H      -42.67810000     -31.32460000     -72.42470000
H      -41.59310000     -32.55950000     -71.77960000
C      -46.26380000     -35.42980000     -70.26930000
H      -46.39530000     -36.41790000     -70.73120000
H      -45.20390000     -35.21210000     -70.11680000
C      -46.89460000     -34.36540000     -71.29920000
H      -48.07930000     -34.47790000     -71.20770000
H      -46.57940000     -33.38800000     -70.86920000
C      -43.64500000     -33.08430000     -71.64040000
H      -44.56650000     -32.82850000     -71.16680000
H      -43.29160000     -33.88420000     -71.00620000
C      -43.98890000     -33.50440000     -73.06410000
C      -43.17000000     -33.42110000     -74.17620000
C      -45.32740000     -34.01070000     -73.44060000
H      -42.16580000     -33.06480000     -74.03730000
C      -45.44050000     -34.25980000     -74.81910000
C      -46.49790000     -34.47440000     -72.71800000
C      -47.44300000     -35.04800000     -73.62180000
S      -43.91980000     -33.83930000     -75.66960000
S      -46.92510000     -35.08490000     -75.31230000
H      -48.28960000     -35.65370000     -73.34160000
