40
Properties=species:S:1:pos:R:3 #=T CELL(abcABC):=T 1.889726e+02=T 90.00000=T Traj:=T positionsangstrom=T Step:=T 0=T Bead:=T pbc="F F F"
C      -47.20170000     -32.58190000     -67.83350000
C      -45.93640000     -33.09240000     -68.13580000
C      -44.94350000     -32.30630000     -68.65760000
C      -45.14460000     -30.94830000     -68.88370000
C      -46.37790000     -30.39170000     -68.35090000
C      -47.36020000     -31.21530000     -67.80990000
H      -47.93810000     -33.20750000     -67.42300000
H      -43.91600000     -32.67260000     -68.88640000
H      -46.38630000     -29.25780000     -68.30610000
H      -48.34260000     -30.76470000     -67.52520000
C      -44.09440000     -30.03920000     -69.57930000
H      -43.84900000     -29.17920000     -68.97330000
H      -44.44620000     -29.67850000     -70.52840000
C      -45.68070000     -34.57210000     -67.94050000
H      -44.71300000     -34.86990000     -68.38920000
H      -45.62390000     -34.65390000     -66.84370000
S      -42.51520000     -30.94190000     -70.08860000
S      -46.92200000     -35.83800000     -68.74350000
C      -42.96670000     -31.57200000     -71.81620000
H      -43.79400000     -30.97050000     -72.26770000
H      -42.06750000     -31.42110000     -72.37100000
C      -46.52640000     -35.55570000     -70.55170000
H      -47.13310000     -36.22130000     -71.15780000
H      -45.45010000     -35.84310000     -70.74610000
C      -46.79060000     -34.16200000     -71.14320000
H      -47.82300000     -33.93560000     -70.99300000
H      -46.19860000     -33.33320000     -70.71500000
C      -43.46100000     -33.04250000     -71.74270000
H      -44.38320000     -32.92620000     -71.19680000
H      -42.84290000     -33.65420000     -71.14690000
C      -43.84320000     -33.65470000     -73.06660000
C      -43.00980000     -33.75660000     -74.16940000
C      -45.27000000     -34.05610000     -73.31380000
H      -41.91700000     -33.51840000     -74.27540000
C      -45.36430000     -34.60120000     -74.56750000
C      -46.54520000     -34.19390000     -72.60870000
C      -47.51890000     -34.63480000     -73.47430000
S      -43.86050000     -34.57950000     -75.47820000
S      -46.99550000     -34.91600000     -75.11140000
H      -48.59060000     -34.68960000     -73.21490000
