40
Properties=species:S:1:pos:R:3 #=T CELL(abcABC):=T 1.889726e+02=T 90.00000=T Traj:=T positionsangstrom=T Step:=T 0=T Bead:=T pbc="F F F"
C      -47.08280000     -32.16980000     -67.28110000
C      -46.09090000     -33.02100000     -67.90410000
C      -45.07440000     -32.42540000     -68.61960000
C      -45.00410000     -31.05260000     -68.82960000
C      -46.07270000     -30.21270000     -68.31930000
C      -47.01100000     -30.77850000     -67.48030000
H      -47.84930000     -32.53170000     -66.62210000
H      -44.34490000     -33.13790000     -68.90210000
H      -46.09440000     -29.15270000     -68.66660000
H      -47.83460000     -30.21070000     -67.08060000
C      -43.90110000     -30.44880000     -69.73250000
H      -43.55050000     -29.54910000     -69.24840000
H      -44.32640000     -30.20050000     -70.70390000
C      -45.88830000     -34.48390000     -67.63330000
H      -44.79320000     -34.69320000     -67.55390000
H      -46.21240000     -34.82700000     -66.63320000
S      -42.34190000     -31.58440000     -69.84020000
S      -46.82730000     -35.68720000     -68.71020000
C      -42.49170000     -32.32280000     -71.64530000
H      -42.67580000     -31.44880000     -72.19790000
H      -41.61410000     -32.81300000     -71.96720000
C      -46.00100000     -35.45700000     -70.33410000
H      -45.89320000     -36.44650000     -70.82740000
H      -44.99790000     -35.08830000     -70.07720000
C      -46.81230000     -34.54640000     -71.35380000
H      -47.82800000     -34.73930000     -71.23220000
H      -46.64680000     -33.50790000     -70.95630000
C      -43.71130000     -33.22620000     -71.66600000
H      -44.56150000     -32.80490000     -71.08410000
H      -43.47030000     -34.19370000     -71.22470000
C      -44.18490000     -33.46980000     -73.12680000
C      -43.48730000     -33.09850000     -74.21340000
C      -45.46520000     -34.12340000     -73.46550000
H      -42.53220000     -32.60810000     -74.25730000
C      -45.62330000     -34.17730000     -74.87440000
C      -46.57270000     -34.70830000     -72.78800000
C      -47.40670000     -35.30260000     -73.71060000
S      -44.32520000     -33.45870000     -75.80360000
S      -46.91750000     -35.20910000     -75.39480000
H      -48.25030000     -35.80680000     -73.27920000
