40
Properties=species:S:1:pos:R:3 #=T CELL(abcABC):=T 1.889726e+02=T 90.00000=T Traj:=T positionsangstrom=T Step:=T 0=T Bead:=T pbc="F F F"
C      -47.02950000     -32.50720000     -67.42860000
C      -45.85490000     -33.13120000     -67.85250000
C      -44.94780000     -32.46930000     -68.63700000
C      -45.15940000     -31.11950000     -68.99640000
C      -46.39290000     -30.51500000     -68.64110000
C      -47.30000000     -31.18350000     -67.81050000
H      -47.76880000     -33.03780000     -66.87880000
H      -44.00560000     -32.93150000     -68.93360000
H      -46.61140000     -29.57680000     -69.06330000
H      -48.17160000     -30.68230000     -67.47020000
C      -44.16050000     -30.24390000     -69.67910000
H      -43.91900000     -29.41080000     -68.95250000
H      -44.51150000     -29.64450000     -70.55570000
C      -45.68670000     -34.61640000     -67.73770000
H      -44.69790000     -35.10840000     -67.85630000
H      -45.89610000     -34.80280000     -66.71790000
S      -42.50980000     -31.02780000     -70.03330000
S      -46.95940000     -35.62770000     -68.70130000
C      -42.79160000     -31.79650000     -71.68430000
H      -43.29440000     -31.05640000     -72.33570000
H      -41.86310000     -32.01410000     -72.18130000
C      -46.47990000     -35.58540000     -70.51460000
H      -47.02470000     -36.45810000     -70.94820000
H      -45.43620000     -35.80750000     -70.57890000
C      -46.75970000     -34.23210000     -71.22710000
H      -47.78620000     -33.85540000     -71.01180000
H      -46.12710000     -33.48850000     -70.84820000
C      -43.56220000     -33.09560000     -71.63690000
H      -44.54360000     -32.80070000     -71.20400000
H      -43.06320000     -33.81980000     -70.93010000
C      -43.91760000     -33.61100000     -73.02990000
C      -43.07320000     -33.58000000     -74.13800000
C      -45.28070000     -34.18010000     -73.37670000
H      -42.01310000     -33.21810000     -74.14980000
C      -45.38590000     -34.51270000     -74.71450000
C      -46.52170000     -34.31630000     -72.69290000
C      -47.53880000     -34.75630000     -73.55570000
S      -43.92650000     -34.21720000     -75.58930000
S      -46.97180000     -34.93930000     -75.23950000
H      -48.61470000     -35.01650000     -73.31340000
