40
Properties=species:S:1:pos:R:3 #=T CELL(abcABC):=T 1.889726e+02=T 90.00000=T Traj:=T positionsangstrom=T Step:=T 0=T Bead:=T pbc="F F F"
C      -47.04710000     -32.59190000     -67.96290000
C      -45.86160000     -33.31750000     -67.89330000
C      -44.62800000     -32.67530000     -68.36300000
C      -44.66460000     -31.36940000     -68.79760000
C      -45.87540000     -30.65370000     -68.69390000
C      -47.08790000     -31.26950000     -68.30550000
H      -47.94910000     -33.14770000     -67.58970000
H      -43.71640000     -33.24350000     -68.31210000
H      -45.90760000     -29.57130000     -68.88870000
H      -47.96650000     -30.60540000     -68.47100000
C      -43.33510000     -30.64040000     -69.15180000
H      -42.79660000     -30.41710000     -68.19380000
H      -43.70280000     -29.69410000     -69.65290000
C      -45.83320000     -34.78590000     -67.56250000
H      -44.80100000     -35.26430000     -67.50210000
H      -46.16690000     -34.98700000     -66.49060000
S      -41.99590000     -31.57700000     -70.09660000
S      -46.99470000     -35.74210000     -68.65430000
C      -42.72110000     -31.60840000     -71.79210000
H      -42.96690000     -30.58170000     -72.06340000
H      -41.93110000     -31.90040000     -72.50120000
C      -46.23840000     -35.51380000     -70.32030000
H      -46.59180000     -36.37750000     -70.91430000
H      -45.19610000     -35.47280000     -70.31240000
C      -46.62150000     -34.26930000     -71.01700000
H      -47.68910000     -34.08470000     -70.67890000
H      -46.10430000     -33.38650000     -70.67740000
C      -43.84400000     -32.64690000     -71.88490000
H      -44.68660000     -32.26370000     -71.28700000
H      -43.51200000     -33.53870000     -71.34090000
C      -44.48220000     -32.98150000     -73.28030000
C      -43.78980000     -32.71860000     -74.46010000
C      -45.64100000     -33.79610000     -73.46240000
H      -42.78890000     -32.28100000     -74.48610000
C      -45.80810000     -34.14260000     -74.78780000
C      -46.55260000     -34.41960000     -72.52420000
C      -47.32130000     -35.36850000     -73.18150000
S      -44.56350000     -33.40400000     -75.88510000
S      -47.08230000     -35.34210000     -74.95010000
H      -48.15830000     -35.98880000     -72.80100000
