40
Properties=species:S:1:pos:R:3 #=T CELL(abcABC):=T 1.889726e+02=T 90.00000=T Traj:=T positionsangstrom=T Step:=T 0=T Bead:=T pbc="F F F"
C      -44.17320000     -34.43570000     -74.80740000
C      -44.88580000     -35.34510000     -73.97440000
C      -44.19600000     -35.84380000     -72.84000000
C      -42.81590000     -35.64240000     -72.64970000
C      -42.16560000     -34.90470000     -73.59020000
C      -42.82710000     -34.28360000     -74.67110000
H      -44.61610000     -33.93420000     -75.66870000
H      -44.75060000     -36.37120000     -72.11750000
H      -41.09550000     -34.81550000     -73.45670000
H      -42.26360000     -33.78400000     -75.42670000
C      -42.02430000     -36.12390000     -71.45800000
H      -40.99380000     -35.71170000     -71.61890000
H      -41.87920000     -37.22860000     -71.51200000
C      -46.32390000     -35.70300000     -74.34820000
H      -46.76420000     -35.03780000     -75.02180000
H      -46.36700000     -36.68220000     -74.78620000
S      -42.89280000     -35.73900000     -69.90660000
S      -47.46270000     -35.69970000     -72.87280000
C      -43.19140000     -33.93900000     -70.00570000
H      -42.41470000     -33.40450000     -69.40390000
H      -43.03140000     -33.70750000     -71.02320000
C      -47.11130000     -34.02960000     -72.18700000
H      -47.48340000     -33.30880000     -72.96360000
H      -46.05790000     -33.79630000     -72.08840000
C      -47.82760000     -33.64950000     -70.89540000
H      -48.89340000     -33.77470000     -71.00910000
H      -47.63410000     -34.28520000     -70.08940000
C      -44.71220000     -33.71470000     -69.81720000
H      -44.96560000     -34.18600000     -68.91770000
H      -45.13670000     -34.14070000     -70.68120000
C      -45.04690000     -32.26500000     -69.61820000
C      -44.34240000     -31.28050000     -68.97830000
C      -46.35680000     -31.72660000     -70.01830000
H      -43.28160000     -31.43400000     -68.72640000
C      -46.40710000     -30.38090000     -69.83220000
C      -47.59920000     -32.22690000     -70.52700000
C      -48.50130000     -31.24160000     -70.76020000
S      -45.03350000     -29.66250000     -69.03610000
S      -47.98450000     -29.72490000     -70.15130000
H      -49.49200000     -31.27550000     -71.07500000
