40
Properties=species:S:1:pos:R:3 #=T CELL(abcABC):=T 1.889726e+02=T 90.00000=T Traj:=T positionsangstrom=T Step:=T 0=T Bead:=T pbc="F F F"
C      -47.40430000     -31.85240000     -68.52210000
C      -46.33800000     -32.76770000     -68.22960000
C      -44.99240000     -32.34370000     -68.35760000
C      -44.72430000     -31.06130000     -68.75950000
C      -45.76430000     -30.18280000     -69.24470000
C      -47.07090000     -30.64220000     -69.12420000
H      -48.49940000     -32.09060000     -68.62510000
H      -44.08480000     -32.96970000     -68.02830000
H      -45.56390000     -29.26560000     -69.72140000
H      -47.81220000     -29.98420000     -69.41000000
C      -43.24100000     -30.73070000     -68.83930000
H      -42.62010000     -31.52850000     -68.47390000
H      -42.81460000     -29.88840000     -68.28370000
C      -46.52920000     -34.15060000     -67.63230000
H      -45.55590000     -34.60400000     -67.45530000
H      -47.02280000     -34.04390000     -66.65590000
S      -42.63430000     -30.41470000     -70.61860000
S      -47.45500000     -35.34350000     -68.68760000
C      -43.56310000     -31.54730000     -71.72600000
H      -44.69530000     -31.36810000     -71.54320000
H      -43.39730000     -31.26820000     -72.73290000
C      -46.54330000     -35.36250000     -70.31000000
H      -46.91050000     -36.24110000     -70.81190000
H      -45.47420000     -35.42870000     -70.12080000
C      -46.81180000     -34.00160000     -71.18140000
H      -47.81150000     -33.69080000     -71.07220000
H      -46.16570000     -33.25340000     -70.77930000
C      -43.34550000     -33.06980000     -71.67080000
H      -43.84220000     -33.43960000     -70.78720000
H      -42.28220000     -33.20820000     -71.63160000
C      -43.82900000     -33.83250000     -72.87220000
C      -42.92600000     -34.30960000     -73.77370000
C      -45.18840000     -34.24460000     -73.21760000
H      -41.88840000     -34.07510000     -73.81260000
C      -45.19080000     -34.86120000     -74.45960000
C      -46.50420000     -34.35240000     -72.61840000
C      -47.47870000     -34.86520000     -73.43630000
S      -43.62520000     -35.11480000     -75.15630000
S      -46.81510000     -35.46020000     -74.89300000
H      -48.49070000     -34.97920000     -73.19010000
