40
Properties=species:S:1:pos:R:3 #=T CELL(abcABC):=T 1.889726e+02=T 90.00000=T Traj:=T positionsangstrom=T Step:=T 0=T Bead:=T pbc="F F F"
C      -47.15830000     -32.41390000     -67.82930000
C      -45.93600000     -32.99810000     -68.05430000
C      -44.81520000     -32.22230000     -68.50330000
C      -44.97040000     -30.89120000     -68.85580000
C      -46.26220000     -30.36860000     -68.71080000
C      -47.33070000     -31.08060000     -68.25490000
H      -47.99840000     -33.11240000     -67.51020000
H      -43.87250000     -32.69380000     -68.63600000
H      -46.42760000     -29.35450000     -68.98530000
H      -48.31550000     -30.61950000     -68.02430000
C      -43.85900000     -30.04640000     -69.29670000
H      -43.32430000     -29.84400000     -68.35990000
H      -44.22910000     -29.08430000     -69.53550000
C      -45.60490000     -34.45650000     -67.95320000
H      -44.55390000     -34.58790000     -68.33560000
H      -45.62070000     -34.92270000     -66.98630000
S      -42.80670000     -30.87780000     -70.49000000
S      -46.88640000     -35.58310000     -68.70950000
C      -44.04880000     -31.79600000     -71.47330000
H      -45.03210000     -31.84520000     -71.05300000
H      -44.17110000     -31.31120000     -72.50060000
C      -46.43040000     -35.26210000     -70.49500000
H      -46.70110000     -36.18490000     -71.03120000
H      -45.32730000     -35.21850000     -70.45590000
C      -46.92330000     -34.01480000     -71.23320000
H      -47.96240000     -33.88470000     -71.12280000
H      -46.52950000     -33.06430000     -70.75660000
C      -43.59360000     -33.25790000     -71.52450000
H      -44.16620000     -33.67030000     -70.71630000
H      -42.52730000     -33.37490000     -71.22700000
C      -43.87120000     -33.95580000     -72.86370000
C      -42.91010000     -34.07630000     -73.85730000
C      -45.20300000     -34.34370000     -73.25150000
H      -41.89430000     -33.86120000     -73.95620000
C      -45.24120000     -34.78120000     -74.57560000
C      -46.53370000     -34.20770000     -72.68090000
C      -47.47330000     -34.50570000     -73.60600000
S      -43.64250000     -34.78990000     -75.30140000
S      -46.85530000     -34.90280000     -75.23050000
H      -48.47040000     -34.43820000     -73.37620000
