40
Properties=species:S:1:pos:R:3 #=T CELL(abcABC):=T 1.889726e+02=T 90.00000=T Traj:=T positionsangstrom=T Step:=T 0=T Bead:=T pbc="F F F"
C      -47.15580000     -31.10370000     -68.13700000
C      -46.39600000     -32.22720000     -67.96130000
C      -45.08430000     -32.11200000     -68.37780000
C      -44.59350000     -30.96000000     -68.96590000
C      -45.45770000     -29.92290000     -69.26210000
C      -46.71350000     -29.94410000     -68.74700000
H      -48.22730000     -31.05430000     -67.76260000
H      -44.41680000     -32.96180000     -68.17850000
H      -45.11400000     -29.02640000     -69.74240000
H      -47.40540000     -29.17420000     -68.78460000
C      -43.12500000     -30.99110000     -69.40120000
H      -42.67540000     -31.98500000     -69.13350000
H      -42.52750000     -30.37920000     -68.76060000
C      -46.92010000     -33.58750000     -67.30920000
H      -46.09450000     -34.10590000     -66.96950000
H      -47.69940000     -33.38050000     -66.49610000
S      -42.73370000     -30.49370000     -71.07400000
S      -47.83730000     -34.71560000     -68.52290000
C      -43.37390000     -31.69230000     -72.28080000
H      -44.29420000     -31.38410000     -72.75350000
H      -42.58620000     -31.76480000     -73.03460000
C      -46.68060000     -34.99270000     -69.93730000
H      -46.78410000     -36.04780000     -70.19660000
H      -45.69570000     -34.63290000     -69.57750000
C      -46.97910000     -34.09540000     -71.25160000
H      -48.07540000     -34.06130000     -71.35690000
H      -46.72030000     -33.01130000     -71.14020000
C      -43.60500000     -33.09050000     -71.71200000
H      -44.40700000     -33.22150000     -70.95740000
H      -42.69970000     -33.56740000     -71.33370000
C      -43.87170000     -34.00910000     -72.91670000
C      -42.90900000     -34.29510000     -73.88740000
C      -45.15200000     -34.67070000     -73.14180000
H      -41.87040000     -33.84080000     -73.84970000
C      -45.07650000     -35.49430000     -74.27800000
C      -46.43170000     -34.77690000     -72.53530000
C      -47.30270000     -35.52780000     -73.35110000
S      -43.53950000     -35.36160000     -75.13320000
S      -46.62600000     -36.07790000     -74.82050000
H      -48.40730000     -35.83960000     -73.11800000
