40
Properties=species:S:1:pos:R:3 #=T CELL(abcABC):=T 1.889726e+02=T 90.00000=T Traj:=T positionsangstrom=T Step:=T 0=T Bead:=T pbc="F F F"
C      -44.10430000     -34.60530000     -74.88480000
C      -44.83910000     -35.34110000     -73.96140000
C      -44.12450000     -35.80450000     -72.86470000
C      -42.77140000     -35.53760000     -72.59230000
C      -42.07040000     -34.80300000     -73.57070000
C      -42.73070000     -34.30700000     -74.66380000
H      -44.51220000     -34.15690000     -75.70720000
H      -44.55460000     -36.47160000     -72.15860000
H      -41.06050000     -34.43030000     -73.45370000
H      -42.27160000     -33.73170000     -75.49930000
C      -42.15040000     -36.32870000     -71.48490000
H      -41.11100000     -36.15060000     -71.31770000
H      -42.36900000     -37.34120000     -71.66020000
C      -46.26240000     -35.85820000     -74.16930000
H      -46.70100000     -35.33790000     -75.09810000
H      -46.19200000     -36.92290000     -74.50410000
S      -42.96470000     -35.92310000     -69.87630000
S      -47.41020000     -35.72320000     -72.70240000
C      -43.26380000     -34.09060000     -69.95840000
H      -42.78190000     -33.55360000     -69.09470000
H      -42.74370000     -33.71640000     -70.82220000
C      -47.46780000     -33.82720000     -72.43560000
H      -48.19900000     -33.44280000     -73.09770000
H      -46.44480000     -33.49450000     -72.52730000
C      -47.81720000     -33.58570000     -70.95360000
H      -48.84700000     -33.89930000     -70.69980000
H      -47.08590000     -34.20080000     -70.35170000
C      -44.77570000     -33.73320000     -69.79730000
H      -45.14790000     -34.22160000     -68.81850000
H      -45.43380000     -34.30810000     -70.46190000
C      -45.03940000     -32.17410000     -69.67910000
C      -44.13310000     -31.17330000     -69.39410000
C      -46.36010000     -31.65140000     -69.93440000
H      -43.10640000     -31.35430000     -69.11590000
C      -46.43450000     -30.27830000     -69.80710000
C      -47.57900000     -32.17080000     -70.43760000
C      -48.56110000     -31.26000000     -70.62760000
S      -45.00520000     -29.62250000     -69.11310000
S      -47.97090000     -29.59840000     -70.18730000
H      -49.54960000     -31.29970000     -71.14700000
