40
Properties=species:S:1:pos:R:3 #=T CELL(abcABC):=T 1.889726e+02=T 90.00000=T Traj:=T positionsangstrom=T Step:=T 0=T Bead:=T pbc="F F F"
C      -47.22210000     -30.92360000     -68.21960000
C      -46.49480000     -32.11180000     -68.24390000
C      -45.18110000     -32.05160000     -68.77410000
C      -44.54060000     -30.84880000     -69.07000000
C      -45.32700000     -29.69510000     -68.96880000
C      -46.61390000     -29.72850000     -68.54360000
H      -48.18130000     -30.95900000     -67.79600000
H      -44.59580000     -32.93310000     -68.59180000
H      -44.90190000     -28.71110000     -69.25430000
H      -47.19950000     -28.79420000     -68.54150000
C      -43.07010000     -30.81020000     -69.38770000
H      -42.68040000     -31.76800000     -69.04600000
H      -42.63460000     -29.98490000     -68.82540000
C      -46.99750000     -33.46250000     -67.66870000
H      -46.09780000     -34.03390000     -67.33190000
H      -47.44150000     -33.27210000     -66.74260000
S      -42.73060000     -30.49660000     -71.22180000
S      -48.05830000     -34.42050000     -68.79140000
C      -43.77370000     -31.69780000     -72.28360000
H      -44.76060000     -31.45470000     -71.90020000
H      -43.66760000     -31.44340000     -73.28490000
C      -46.79490000     -34.91390000     -69.97580000
H      -47.05120000     -35.95110000     -70.30720000
H      -45.84410000     -34.98070000     -69.35030000
C      -46.59880000     -33.96770000     -71.17970000
H      -47.63220000     -33.54570000     -71.36780000
H      -45.90360000     -33.13150000     -71.03150000
C      -43.41170000     -33.11390000     -71.90780000
H      -43.94350000     -33.37240000     -70.97020000
H      -42.33050000     -33.16150000     -71.58870000
C      -43.76530000     -34.10130000     -72.94270000
C      -42.90350000     -34.47320000     -73.97920000
C      -45.09760000     -34.65180000     -73.17840000
H      -41.91720000     -34.11770000     -74.13980000
C      -45.09700000     -35.50470000     -74.25730000
C      -46.30290000     -34.68260000     -72.43460000
C      -47.15790000     -35.65840000     -72.88820000
S      -43.54460000     -35.75030000     -74.99540000
S      -46.60330000     -36.45930000     -74.38580000
H      -48.23260000     -35.68640000     -72.68330000
