40
Properties=species:S:1:pos:R:3 #=T CELL(abcABC):=T 1.889726e+02=T 90.00000=T Traj:=T positionsangstrom=T Step:=T 0=T Bead:=T pbc="F F F"
C      -43.16360000     -35.66230000     -74.90000000
C      -44.06130000     -35.87580000     -73.81240000
C      -43.66660000     -35.66880000     -72.53180000
C      -42.33190000     -35.20510000     -72.23160000
C      -41.46330000     -34.89670000     -73.28280000
C      -41.89670000     -35.15180000     -74.61000000
H      -43.53180000     -35.70670000     -75.88480000
H      -44.40360000     -35.73730000     -71.72410000
H      -40.36360000     -34.59480000     -73.13980000
H      -41.14300000     -34.90680000     -75.34230000
C      -41.91340000     -35.24140000     -70.78930000
H      -41.15160000     -34.47510000     -70.52900000
H      -41.52870000     -36.20720000     -70.60960000
C      -45.38980000     -36.32440000     -74.24300000
H      -45.52680000     -36.18480000     -75.32600000
H      -45.39370000     -37.40790000     -74.01810000
S      -43.24070000     -35.13630000     -69.56730000
S      -46.85760000     -35.92230000     -73.18200000
C      -43.93730000     -33.45110000     -69.84610000
H      -43.00490000     -32.81160000     -69.86600000
H      -44.50760000     -33.36270000     -70.74580000
C      -46.71770000     -34.15690000     -72.55050000
H      -47.42040000     -33.73210000     -73.30010000
H      -45.70070000     -33.79850000     -72.77330000
C      -47.23210000     -34.02590000     -71.10700000
H      -48.11060000     -34.58450000     -70.99520000
H      -46.55170000     -34.57020000     -70.50890000
C      -44.94960000     -33.11920000     -68.69350000
H      -44.46120000     -33.08280000     -67.78260000
H      -45.62070000     -33.97560000     -68.62260000
C      -45.75930000     -31.91310000     -68.93500000
C      -45.37260000     -30.70420000     -68.36190000
C      -46.79900000     -31.70820000     -69.88970000
H      -44.42200000     -30.60840000     -67.74940000
C      -47.16500000     -30.35050000     -69.96810000
C      -47.47560000     -32.51220000     -70.80730000
C      -48.34300000     -31.79220000     -71.64620000
S      -46.18610000     -29.29560000     -69.12860000
S      -48.33280000     -30.05730000     -71.25500000
H      -48.91720000     -32.12410000     -72.60750000
