40
Properties=species:S:1:pos:R:3 #=T CELL(abcABC):=T 1.889726e+02=T 90.00000=T Traj:=T positionsangstrom=T Step:=T 0=T Bead:=T pbc="F F F"
C      -47.12720000     -30.80600000     -68.14820000
C      -46.41940000     -32.02730000     -68.07250000
C      -45.08500000     -32.01640000     -68.50860000
C      -44.47090000     -30.90160000     -69.06300000
C      -45.24070000     -29.75130000     -69.18940000
C      -46.53030000     -29.68580000     -68.66700000
H      -48.20420000     -30.79620000     -67.84470000
H      -44.52290000     -32.98220000     -68.51710000
H      -44.64040000     -28.88190000     -69.43620000
H      -47.08400000     -28.77620000     -68.80920000
C      -43.03870000     -30.86790000     -69.58090000
H      -42.35670000     -31.74490000     -69.41790000
H      -42.54660000     -30.09140000     -69.01450000
C      -47.01220000     -33.28120000     -67.52750000
H      -46.16310000     -34.03640000     -67.32430000
H      -47.63470000     -33.10540000     -66.69320000
S      -42.95240000     -30.36120000     -71.34010000
S      -48.21010000     -34.18350000     -68.75460000
C      -44.01920000     -31.75860000     -71.97970000
H      -45.01140000     -31.90480000     -71.51840000
H      -44.13900000     -31.63580000     -73.11650000
C      -47.02540000     -34.98040000     -70.02910000
H      -47.64880000     -35.73890000     -70.45180000
H      -46.18600000     -35.37410000     -69.49810000
C      -46.58570000     -34.00890000     -71.10110000
H      -47.30450000     -33.20700000     -71.21620000
H      -45.71570000     -33.50480000     -70.78780000
C      -43.21510000     -33.09050000     -71.98640000
H      -43.13000000     -33.61770000     -71.00110000
H      -42.21440000     -32.78680000     -72.30350000
C      -43.63620000     -34.21260000     -72.98240000
C      -42.79800000     -34.57060000     -74.03380000
C      -44.96090000     -34.87770000     -73.11330000
H      -41.79940000     -34.34640000     -74.15190000
C      -44.99290000     -35.72960000     -74.21710000
C      -46.28810000     -34.76090000     -72.39940000
C      -47.21280000     -35.53980000     -73.04650000
S      -43.52620000     -35.78860000     -75.07040000
S      -46.52240000     -36.58920000     -74.28800000
H      -48.23530000     -35.67660000     -72.85390000
