40
Properties=species:S:1:pos:R:3 #=T CELL(abcABC):=T 1.889726e+02=T 90.00000=T Traj:=T positionsangstrom=T Step:=T 0=T Bead:=T pbc="F F F"
C      -46.76070000     -30.79610000     -67.57660000
C      -46.20980000     -31.98350000     -68.07290000
C      -45.06370000     -31.93420000     -68.89580000
C      -44.44550000     -30.71020000     -69.27630000
C      -45.10920000     -29.48640000     -68.86140000
C      -46.26700000     -29.56450000     -67.99960000
H      -47.66350000     -30.95430000     -66.98320000
H      -44.72380000     -32.90240000     -69.17620000
H      -44.65740000     -28.51030000     -68.92900000
H      -46.80590000     -28.66230000     -67.76170000
C      -43.06600000     -30.70940000     -70.00120000
H      -42.62870000     -31.67680000     -69.95440000
H      -42.47310000     -30.00770000     -69.52340000
C      -46.70220000     -33.31660000     -67.68780000
H      -46.00390000     -34.17140000     -67.87630000
H      -47.06930000     -33.28610000     -66.65600000
S      -43.04640000     -30.33550000     -71.83880000
S      -48.19440000     -33.68830000     -68.79020000
C      -44.05680000     -31.80990000     -72.27060000
H      -44.98290000     -31.85130000     -71.69550000
H      -44.29910000     -31.74340000     -73.33420000
C      -47.40560000     -34.94300000     -69.94490000
H      -48.29680000     -35.36010000     -70.51190000
H      -46.88070000     -35.81790000     -69.42820000
C      -46.51240000     -34.22540000     -71.01520000
H      -47.02200000     -33.27060000     -71.21110000
H      -45.58270000     -33.95100000     -70.48090000
C      -43.29520000     -33.21340000     -72.00640000
H      -43.39250000     -33.52160000     -70.97370000
H      -42.20310000     -33.13490000     -72.11620000
C      -43.76250000     -34.32520000     -72.93540000
C      -42.89840000     -34.82140000     -73.85230000
C      -45.04000000     -34.94590000     -73.02760000
H      -41.81690000     -34.45870000     -73.98180000
C      -45.07620000     -35.86450000     -74.08170000
C      -46.23470000     -35.01430000     -72.26500000
C      -47.16130000     -35.85340000     -72.84030000
S      -43.53610000     -36.10310000     -74.92000000
S      -46.65430000     -36.52020000     -74.31810000
H      -48.08550000     -35.93170000     -72.52390000
