40
Properties=species:S:1:pos:R:3 #=T CELL(abcABC):=T 1.889726e+02=T 90.00000=T Traj:=T positionsangstrom=T Step:=T 0=T Bead:=T pbc="F F F"
C      -43.67660000     -35.23750000     -73.84260000
C      -44.20450000     -36.09100000     -72.80700000
C      -43.56260000     -36.10060000     -71.55360000
C      -42.40800000     -35.37820000     -71.28850000
C      -41.87690000     -34.64940000     -72.34550000
C      -42.47450000     -34.51660000     -73.57760000
H      -44.14110000     -35.19210000     -74.79370000
H      -43.85470000     -36.70520000     -70.75320000
H      -40.95160000     -34.08880000     -72.34810000
H      -42.06170000     -33.77450000     -74.25760000
C      -41.82570000     -35.27120000     -69.95330000
H      -40.90030000     -34.60090000     -69.95930000
H      -41.41990000     -36.19900000     -69.52930000
C      -45.29060000     -37.09390000     -73.03240000
H      -45.28770000     -37.50010000     -74.00180000
H      -45.20100000     -37.84410000     -72.20720000
S      -43.06480000     -34.61950000     -68.74040000
S      -46.97470000     -36.46940000     -72.84770000
C      -44.02430000     -33.28000000     -69.61310000
H      -43.50460000     -32.36740000     -69.45190000
H      -44.13870000     -33.44910000     -70.64140000
C      -46.74880000     -34.62510000     -72.73690000
H      -47.17120000     -34.15790000     -73.65820000
H      -45.59910000     -34.57330000     -72.70080000
C      -47.46660000     -34.01390000     -71.56350000
H      -48.53270000     -34.38350000     -71.51720000
H      -47.01270000     -34.43590000     -70.61760000
C      -45.40550000     -32.99530000     -68.97850000
H      -45.32770000     -32.98950000     -67.90470000
H      -46.09330000     -33.81400000     -69.16800000
C      -45.94250000     -31.78340000     -69.50560000
C      -45.57850000     -30.52950000     -69.04990000
C      -46.83980000     -31.61370000     -70.64180000
H      -44.85820000     -30.44930000     -68.16830000
C      -46.95930000     -30.28090000     -71.08820000
C      -47.41490000     -32.52770000     -71.60750000
C      -47.87800000     -31.81070000     -72.64210000
S      -46.02420000     -29.18500000     -70.03740000
S      -47.74500000     -30.09400000     -72.59720000
H      -48.30450000     -32.28000000     -73.52010000
