40
Properties=species:S:1:pos:R:3 #=T CELL(abcABC):=T 1.889726e+02=T 90.00000=T Traj:=T positionsangstrom=T Step:=T 0=T Bead:=T pbc="F F F"
C      -44.08410000     -36.97680000     -71.81800000
C      -43.18950000     -35.93630000     -71.95240000
C      -42.79490000     -35.27190000     -70.79780000
C      -43.33130000     -35.46530000     -69.55700000
C      -44.26770000     -36.51150000     -69.41910000
C      -44.66080000     -37.26990000     -70.55760000
H      -44.38710000     -37.55330000     -72.70630000
H      -42.05750000     -34.43900000     -70.90810000
H      -44.55770000     -36.71960000     -68.47010000
H      -45.29530000     -38.11430000     -70.40680000
C      -42.96930000     -34.72700000     -68.30340000
H      -42.02870000     -35.17650000     -67.93540000
H      -43.67870000     -34.95640000     -67.44460000
C      -42.68770000     -35.63040000     -73.31010000
H      -42.02300000     -34.72540000     -73.32910000
H      -42.09620000     -36.45640000     -73.67760000
S      -42.59410000     -32.96220000     -68.45540000
S      -44.08370000     -35.21560000     -74.53480000
C      -44.27730000     -32.17020000     -68.73600000
H      -44.93370000     -32.50020000     -67.92670000
H      -44.17270000     -31.11930000     -68.69570000
C      -44.91530000     -33.84270000     -73.65190000
H      -45.15750000     -33.12450000     -74.41380000
H      -44.22500000     -33.33830000     -72.96870000
C      -46.10730000     -34.15540000     -72.76930000
H      -46.74000000     -34.80370000     -73.41450000
H      -45.83730000     -34.79360000     -71.93260000
C      -44.85620000     -32.51160000     -70.10730000
H      -45.28180000     -33.47550000     -70.12490000
H      -44.00210000     -32.57760000     -70.78430000
C      -45.98710000     -31.52390000     -70.55970000
C      -46.27850000     -30.32120000     -69.90180000
C      -46.93790000     -31.81550000     -71.60760000
H      -45.73730000     -29.86960000     -69.03570000
C      -48.00230000     -30.94620000     -71.69250000
C      -47.05380000     -33.02750000     -72.41820000
C      -48.18050000     -32.95500000     -73.16220000
S      -47.75100000     -29.56520000     -70.60340000
S      -49.11870000     -31.44710000     -72.91500000
H      -48.49720000     -33.68590000     -73.90740000
