40
Properties=species:S:1:pos:R:3 #=T CELL(abcABC):=T 1.889726e+02=T 90.00000=T Traj:=T positionsangstrom=T Step:=T 0=T Bead:=T pbc="F F F"
C      -43.27480000     -35.81590000     -73.71360000
C      -44.08780000     -36.32620000     -72.72090000
C      -43.68240000     -36.06980000     -71.38260000
C      -42.53320000     -35.32450000     -71.12300000
C      -41.62610000     -34.92140000     -72.15630000
C      -42.08250000     -35.14970000     -73.44900000
H      -43.62450000     -36.14120000     -74.75930000
H      -44.29540000     -36.43670000     -70.53830000
H      -40.60690000     -34.54000000     -71.93790000
H      -41.49450000     -34.62720000     -74.26880000
C      -42.04810000     -35.07590000     -69.72950000
H      -41.19280000     -34.34860000     -69.85960000
H      -41.67200000     -35.97390000     -69.28320000
C      -45.28790000     -37.19360000     -73.00000000
H      -45.60790000     -36.98350000     -74.02850000
H      -45.05200000     -38.22460000     -72.90460000
S      -43.25680000     -34.34410000     -68.53760000
S      -46.73530000     -36.72530000     -71.98340000
C      -43.86940000     -32.88000000     -69.40570000
H      -43.28030000     -31.97320000     -69.29270000
H      -43.91220000     -33.19020000     -70.46130000
C      -46.98660000     -35.07730000     -72.72830000
H      -48.01850000     -34.88030000     -73.10150000
H      -46.28340000     -34.96730000     -73.60470000
C      -46.74100000     -33.99790000     -71.65510000
H      -47.15370000     -34.21870000     -70.56150000
H      -45.69850000     -34.03050000     -71.43290000
C      -45.28310000     -32.49340000     -68.91890000
H      -45.32790000     -32.19800000     -67.84540000
H      -45.92440000     -33.39340000     -69.05260000
C      -45.91950000     -31.35600000     -69.71020000
C      -46.09520000     -30.06360000     -69.22320000
C      -46.61010000     -31.51310000     -70.99420000
H      -45.58290000     -29.62960000     -68.25170000
C      -46.93060000     -30.19750000     -71.51750000
C      -46.97420000     -32.60090000     -71.91930000
C      -47.55360000     -32.11080000     -73.08220000
S      -46.86370000     -28.86680000     -70.38970000
S      -47.75990000     -30.30280000     -73.08840000
H      -47.69340000     -32.74600000     -73.94610000
