40
Properties=species:S:1:pos:R:3 #=T CELL(abcABC):=T 1.889726e+02=T 90.00000=T Traj:=T positionsangstrom=T Step:=T 0=T Bead:=T pbc="F F F"
C      -44.29240000     -36.86740000     -71.83280000
C      -43.30520000     -35.89320000     -71.95210000
C      -42.97580000     -35.21920000     -70.81700000
C      -43.54210000     -35.46430000     -69.56800000
C      -44.46580000     -36.51240000     -69.47280000
C      -44.85790000     -37.23970000     -70.61670000
H      -44.47060000     -37.43650000     -72.77690000
H      -42.25180000     -34.39100000     -70.85520000
H      -44.92450000     -36.68690000     -68.60330000
H      -45.61630000     -37.96020000     -70.54660000
C      -42.92860000     -34.80520000     -68.31000000
H      -41.88570000     -35.13120000     -68.04380000
H      -43.57190000     -34.88450000     -67.54920000
C      -42.76750000     -35.51510000     -73.31690000
H      -41.96020000     -34.78940000     -73.18110000
H      -42.37970000     -36.42390000     -73.81160000
S      -42.51930000     -32.99180000     -68.49950000
S      -44.01670000     -34.93820000     -74.55260000
C      -44.16120000     -32.21750000     -68.71310000
H      -44.77960000     -32.44770000     -67.78380000
H      -43.87400000     -31.15320000     -68.60200000
C      -44.91390000     -33.50780000     -73.67400000
H      -45.30270000     -32.80140000     -74.32170000
H      -44.10330000     -32.94890000     -73.07030000
C      -46.01890000     -34.07160000     -72.73310000
H      -46.63780000     -34.80190000     -73.20060000
H      -45.53330000     -34.48290000     -71.88210000
C      -44.81470000     -32.63170000     -69.96150000
H      -45.15300000     -33.72250000     -69.75210000
H      -44.05640000     -32.78270000     -70.73640000
C      -45.90110000     -31.74150000     -70.50690000
C      -46.21620000     -30.51710000     -69.97040000
C      -46.91490000     -32.03830000     -71.53950000
H      -45.69430000     -30.00560000     -69.14570000
C      -47.95600000     -31.14420000     -71.65050000
C      -47.05120000     -33.04080000     -72.52610000
C      -48.15970000     -32.86220000     -73.28990000
S      -47.61030000     -29.68450000     -70.59510000
S      -49.15370000     -31.52160000     -72.81770000
H      -48.50620000     -33.54490000     -74.06510000
