40
Properties=species:S:1:pos:R:3 #=T CELL(abcABC):=T 1.889726e+02=T 90.00000=T Traj:=T positionsangstrom=T Step:=T 0=T Bead:=T pbc="F F F"
C      -43.98590000     -37.37390000     -71.04440000
C      -43.18450000     -36.34240000     -71.56460000
C      -42.76620000     -35.30770000     -70.64170000
C      -43.15660000     -35.29460000     -69.30430000
C      -44.00210000     -36.30070000     -68.86740000
C      -44.40890000     -37.37310000     -69.68400000
H      -44.22860000     -38.14060000     -71.84420000
H      -42.14580000     -34.52940000     -70.98570000
H      -44.18750000     -36.31820000     -67.73230000
H      -45.05130000     -38.20330000     -69.34060000
C      -42.48330000     -34.39880000     -68.24420000
H      -41.45800000     -34.56670000     -68.03730000
H      -42.86700000     -34.56840000     -67.22840000
C      -42.99530000     -36.13590000     -73.05890000
H      -42.41900000     -35.17760000     -73.31490000
H      -42.60340000     -37.01800000     -73.50680000
S      -42.52300000     -32.53020000     -68.76360000
S      -44.66610000     -35.97210000     -73.94120000
C      -44.38500000     -32.22750000     -69.14010000
H      -44.86360000     -33.27690000     -69.19460000
H      -44.89590000     -31.64960000     -68.34690000
C      -45.25570000     -34.31210000     -73.55940000
H      -45.85230000     -34.02260000     -74.42160000
H      -44.50490000     -33.50450000     -73.54940000
C      -46.08030000     -34.21890000     -72.20070000
H      -46.56830000     -35.17070000     -71.96930000
H      -45.36580000     -34.00090000     -71.48780000
C      -44.47380000     -31.54490000     -70.53850000
H      -44.17980000     -32.21690000     -71.36300000
H      -43.80160000     -30.75030000     -70.59120000
C      -45.84570000     -31.02840000     -71.04460000
C      -46.19740000     -29.75580000     -70.74100000
C      -46.82350000     -31.73960000     -71.85530000
H      -45.54020000     -29.14380000     -70.22120000
C      -47.89300000     -30.89300000     -72.04740000
C      -47.05320000     -33.11100000     -72.35190000
C      -48.20270000     -33.16320000     -73.04250000
S      -47.75480000     -29.29110000     -71.38440000
S      -49.16720000     -31.63630000     -72.98520000
H      -48.79340000     -33.94140000     -73.51490000
