40
Properties=species:S:1:pos:R:3 #=T CELL(abcABC):=T 1.889726e+02=T 90.00000=T Traj:=T positionsangstrom=T Step:=T 0=T Bead:=T pbc="F F F"
C      -43.10750000     -35.37560000     -73.31820000
C      -43.77540000     -36.21080000     -72.41730000
C      -43.41660000     -36.14930000     -70.96460000
C      -42.48840000     -35.15010000     -70.59940000
C      -41.95920000     -34.23230000     -71.57860000
C      -42.22710000     -34.37330000     -72.91720000
H      -43.44810000     -35.52760000     -74.33030000
H      -43.79160000     -36.94780000     -70.31530000
H      -41.33180000     -33.36050000     -71.16780000
H      -41.69890000     -33.79270000     -73.69000000
C      -42.06170000     -34.89860000     -69.19760000
H      -41.15620000     -34.22540000     -69.24990000
H      -41.82360000     -35.72680000     -68.58160000
C      -44.72680000     -37.23400000     -72.87240000
H      -44.78040000     -37.23820000     -74.04870000
H      -44.54350000     -38.25970000     -72.56020000
S      -43.50100000     -34.10890000     -68.33710000
S      -46.44740000     -36.95780000     -72.21830000
C      -44.09500000     -32.75120000     -69.50450000
H      -43.48140000     -31.82130000     -69.38210000
H      -44.02290000     -33.10500000     -70.54270000
C      -46.90700000     -35.23380000     -72.70670000
H      -47.92230000     -35.40420000     -73.02430000
H      -46.23030000     -35.03370000     -73.51950000
C      -46.77140000     -34.13090000     -71.61470000
H      -47.45350000     -34.38160000     -70.78270000
H      -45.81670000     -34.32120000     -71.17340000
C      -45.51270000     -32.55750000     -69.08830000
H      -45.52920000     -32.17890000     -68.08950000
H      -46.12730000     -33.49160000     -69.09050000
C      -46.15880000     -31.44010000     -69.92540000
C      -46.14680000     -30.11570000     -69.51190000
C      -46.82470000     -31.61720000     -71.22730000
H      -45.85320000     -29.64040000     -68.60410000
C      -47.26920000     -30.42990000     -71.71620000
C      -47.05870000     -32.73750000     -72.10930000
C      -47.56960000     -32.32800000     -73.32690000
S      -46.72850000     -29.07420000     -70.82030000
S      -47.73730000     -30.57810000     -73.40640000
H      -47.97680000     -33.10220000     -73.92010000
