40
Properties=species:S:1:pos:R:3 #=T CELL(abcABC):=T 1.889726e+02=T 90.00000=T Traj:=T positionsangstrom=T Step:=T 0=T Bead:=T pbc="F F F"
C      -44.30190000     -37.17780000     -70.93640000
C      -43.43330000     -36.20560000     -71.48360000
C      -42.88160000     -35.21720000     -70.61800000
C      -42.99820000     -35.34420000     -69.22180000
C      -43.73390000     -36.32520000     -68.71700000
C      -44.42920000     -37.21780000     -69.54110000
H      -44.75390000     -37.89020000     -71.59840000
H      -42.21890000     -34.42140000     -70.98340000
H      -43.81230000     -36.40420000     -67.62000000
H      -45.08180000     -37.85290000     -69.03090000
C      -42.34940000     -34.39590000     -68.26380000
H      -41.30300000     -34.46240000     -68.29670000
H      -42.78290000     -34.47550000     -67.19090000
C      -43.12210000     -36.18780000     -72.97640000
H      -42.46680000     -35.33540000     -73.11260000
H      -42.54280000     -36.98460000     -73.33270000
S      -42.52910000     -32.56080000     -68.74690000
S      -44.61380000     -36.03880000     -74.05350000
C      -44.42250000     -32.26420000     -69.38680000
H      -44.93870000     -33.19390000     -69.34830000
H      -44.87310000     -31.65770000     -68.59190000
C      -45.15190000     -34.30620000     -73.56080000
H      -45.65870000     -34.02530000     -74.51450000
H      -44.28050000     -33.70410000     -73.39490000
C      -46.10350000     -34.31960000     -72.36120000
H      -46.80490000     -35.15900000     -72.42850000
H      -45.56700000     -34.38620000     -71.40320000
C      -44.43770000     -31.47810000     -70.73630000
H      -44.02930000     -32.23830000     -71.50030000
H      -43.60040000     -30.69780000     -70.68520000
C      -45.81580000     -31.00310000     -71.10430000
C      -46.14180000     -29.67560000     -70.88410000
C      -46.83250000     -31.81520000     -71.73680000
H      -45.48350000     -29.03720000     -70.34920000
C      -47.94960000     -30.94050000     -71.94610000
C      -47.03130000     -33.11830000     -72.33270000
C      -48.28090000     -33.22780000     -72.88240000
S      -47.70210000     -29.27740000     -71.50290000
S      -49.19630000     -31.67160000     -72.85410000
H      -48.67420000     -34.08260000     -73.50440000
