40
Properties=species:S:1:pos:R:3 #=T CELL(abcABC):=T 1.889726e+02=T 90.00000=T Traj:=T positionsangstrom=T Step:=T 0=T Bead:=T pbc="F F F"
C      -43.19710000     -35.14760000     -73.42910000
C      -43.56790000     -36.10140000     -72.45120000
C      -43.14080000     -35.93390000     -71.13140000
C      -42.35180000     -34.85980000     -70.72730000
C      -41.94990000     -33.88310000     -71.67570000
C      -42.41510000     -34.04730000     -72.97860000
H      -43.52160000     -35.10410000     -74.41890000
H      -43.35230000     -36.68640000     -70.30820000
H      -41.35830000     -33.06300000     -71.43640000
H      -42.02470000     -33.33250000     -73.74840000
C      -42.11320000     -34.62910000     -69.24440000
H      -41.50310000     -33.72280000     -69.01930000
H      -41.61370000     -35.46270000     -68.82820000
C      -44.39440000     -37.28780000     -72.75740000
H      -44.47110000     -37.58450000     -73.78380000
H      -44.01330000     -38.05970000     -72.15960000
S      -43.78310000     -34.36350000     -68.37110000
S      -46.19930000     -36.99440000     -72.27760000
C      -44.38720000     -32.93080000     -69.29450000
H      -43.80270000     -32.05410000     -68.95000000
H      -44.37640000     -33.09320000     -70.37460000
C      -46.68100000     -35.24720000     -72.73760000
H      -47.66620000     -35.41130000     -73.15080000
H      -45.89210000     -34.99730000     -73.51330000
C      -46.78480000     -34.26770000     -71.56660000
H      -47.41890000     -34.77400000     -70.84410000
H      -45.72050000     -34.21760000     -71.14690000
C      -45.85520000     -32.46640000     -68.87060000
H      -45.83070000     -32.04000000     -67.85140000
H      -46.52300000     -33.34620000     -68.94190000
C      -46.35200000     -31.40750000     -69.76030000
C      -46.15280000     -30.05530000     -69.54450000
C      -46.92640000     -31.71630000     -71.07730000
H      -45.62950000     -29.63660000     -68.68010000
C      -46.99500000     -30.49220000     -71.82070000
C      -47.22710000     -32.88320000     -71.88730000
C      -47.53100000     -32.50780000     -73.20350000
S      -46.73820000     -29.02850000     -70.88850000
S      -47.73460000     -30.80250000     -73.43430000
H      -47.60970000     -33.14340000     -74.11170000
