40
Properties=species:S:1:pos:R:3 #=T CELL(abcABC):=T 1.889726e+02=T 90.00000=T Traj:=T positionsangstrom=T Step:=T 0=T Bead:=T pbc="F F F"
C      -43.54300000     -30.18580000     -68.81190000
C      -43.96950000     -31.51280000     -68.64580000
C      -43.25320000     -32.59860000     -69.13100000
C      -42.14310000     -32.35280000     -69.90900000
C      -41.71360000     -31.06100000     -70.13080000
C      -42.38520000     -29.99970000     -69.54950000
H      -44.19390000     -29.29210000     -68.47340000
H      -43.59890000     -33.63120000     -69.08390000
H      -40.96640000     -30.82930000     -70.79450000
H      -42.11440000     -28.99500000     -69.82070000
C      -41.53080000     -33.51940000     -70.67790000
H      -41.87050000     -34.44360000     -70.18140000
H      -40.42700000     -33.60910000     -70.44520000
C      -45.30930000     -31.86230000     -67.98700000
H      -45.50860000     -32.93880000     -68.03560000
H      -45.25240000     -31.51710000     -66.96040000
S      -41.61640000     -33.53940000     -72.47580000
S      -46.75630000     -30.89980000     -68.58270000
C      -43.51800000     -33.74800000     -72.68290000
H      -43.84270000     -32.73100000     -72.48710000
H      -43.59280000     -34.02990000     -73.74670000
C      -47.48920000     -31.80200000     -69.91470000
H      -47.90120000     -31.07410000     -70.60750000
H      -48.35820000     -32.27070000     -69.52470000
C      -46.63010000     -32.80130000     -70.78430000
H      -45.78510000     -32.21240000     -71.17380000
H      -46.36480000     -33.57110000     -70.14060000
C      -44.13130000     -34.90330000     -71.96210000
H      -44.36720000     -34.66550000     -70.87130000
H      -43.49160000     -35.76830000     -71.91300000
C      -45.41890000     -35.28950000     -72.71720000
C      -45.53920000     -36.51220000     -73.29240000
C      -46.76120000     -34.63640000     -72.64170000
H      -44.75540000     -37.22070000     -73.29030000
C      -47.71580000     -35.36250000     -73.34650000
C      -47.32830000     -33.49750000     -71.89000000
C      -48.67020000     -33.40600000     -72.17380000
S      -47.17390000     -36.84810000     -73.99380000
S      -49.29200000     -34.71150000     -73.25940000
H      -49.32900000     -32.76460000     -71.70230000
