40
Properties=species:S:1:pos:R:3 #=T CELL(abcABC):=T 1.889726e+02=T 90.00000=T Traj:=T positionsangstrom=T Step:=T 0=T Bead:=T pbc="F F F"
C      -46.36800000     -35.18940000     -74.59060000
C      -47.11240000     -34.09240000     -74.02650000
C      -47.79690000     -34.24240000     -72.81070000
C      -47.88290000     -35.54890000     -72.29460000
C      -47.26500000     -36.65570000     -73.00400000
C      -46.48900000     -36.46270000     -74.12490000
H      -45.94270000     -34.99040000     -75.58700000
H      -48.46560000     -33.51390000     -72.28960000
H      -47.44420000     -37.65620000     -72.63550000
H      -45.87840000     -37.32420000     -74.54440000
C      -48.74170000     -35.83620000     -71.08260000
H      -48.54240000     -36.80450000     -70.69370000
H      -49.78620000     -35.72120000     -71.28490000
C      -46.95740000     -32.74300000     -74.75260000
H      -47.40820000     -32.79310000     -75.73660000
H      -47.54880000     -31.99780000     -74.20860000
S      -48.49870000     -34.58550000     -69.63480000
S      -45.16660000     -32.26110000     -74.97180000
C      -46.77290000     -34.60950000     -69.17130000
H      -46.72600000     -34.04570000     -68.23880000
H      -46.47400000     -35.66060000     -68.95810000
C      -44.40030000     -32.27080000     -73.29440000
H      -43.42010000     -31.92700000     -73.45010000
H      -44.32020000     -33.28850000     -72.89420000
C      -44.93720000     -31.33780000     -72.14950000
H      -45.07250000     -30.35840000     -72.67890000
H      -45.91930000     -31.77760000     -71.85830000
C      -45.82580000     -34.07410000     -70.26800000
H      -46.21960000     -33.26040000     -70.90040000
H      -45.66400000     -35.01170000     -70.86330000
C      -44.48520000     -33.61020000     -69.75720000
C      -43.98340000     -34.22550000     -68.57370000
C      -43.72480000     -32.42780000     -70.10180000
H      -44.38360000     -35.15160000     -68.13790000
C      -42.74020000     -32.16660000     -69.14010000
C      -43.93570000     -31.25480000     -70.97770000
C      -43.04330000     -30.26560000     -70.72160000
S      -42.57950000     -33.39430000     -67.90950000
S      -41.86530000     -30.67610000     -69.47570000
H      -42.91110000     -29.40190000     -71.45490000
