40
Properties=species:S:1:pos:R:3 #=T CELL(abcABC):=T 1.889726e+02=T 90.00000=T Traj:=T positionsangstrom=T Step:=T 0=T Bead:=T pbc="F F F"
C      -43.45830000     -37.27730000     -69.90240000
C      -43.24050000     -36.27430000     -70.82650000
C      -42.93230000     -34.94010000     -70.37050000
C      -42.82260000     -34.68520000     -69.02400000
C      -43.27050000     -35.65140000     -68.12660000
C      -43.59960000     -36.89310000     -68.53560000
H      -44.03090000     -38.14130000     -70.22460000
H      -42.70370000     -34.14260000     -70.97190000
H      -43.28750000     -35.40590000     -67.10620000
H      -44.00970000     -37.62470000     -67.85990000
C      -42.40350000     -33.37730000     -68.47110000
H      -41.34210000     -33.40730000     -68.11410000
H      -43.05000000     -33.09760000     -67.62420000
C      -43.26170000     -36.53830000     -72.34710000
H      -42.72660000     -35.78850000     -72.94350000
H      -42.85480000     -37.53040000     -72.55360000
S      -42.43690000     -31.89300000     -69.54310000
S      -45.00710000     -36.60410000     -73.00300000
C      -44.20560000     -31.54700000     -69.85980000
H      -44.77260000     -32.39650000     -69.49090000
H      -44.49930000     -30.72430000     -69.24090000
C      -45.26630000     -34.84340000     -73.07680000
H      -45.64080000     -34.44350000     -74.01660000
H      -44.28050000     -34.28070000     -73.13790000
C      -46.17390000     -34.41250000     -71.94890000
H      -46.60600000     -35.19790000     -71.44620000
H      -45.48840000     -33.91760000     -71.23350000
C      -44.37130000     -31.34650000     -71.43750000
H      -44.11640000     -32.37940000     -71.84220000
H      -43.65580000     -30.54570000     -71.75400000
C      -45.83320000     -31.04320000     -71.81970000
C      -46.16040000     -29.71740000     -72.01150000
C      -46.92640000     -31.91090000     -72.16700000
H      -45.53950000     -28.88880000     -72.02960000
C      -48.10280000     -31.20820000     -72.47250000
C      -47.14980000     -33.30220000     -72.20440000
C      -48.40230000     -33.62730000     -72.65850000
S      -47.84460000     -29.52170000     -72.38100000
S      -49.48640000     -32.24640000     -72.84580000
H      -48.80790000     -34.65570000     -72.75190000
