40
Properties=species:S:1:pos:R:3 #=T CELL(abcABC):=T 1.889726e+02=T 90.00000=T Traj:=T positionsangstrom=T Step:=T 0=T Bead:=T pbc="F F F"
C      -43.55500000     -30.29070000     -68.59300000
C      -44.10320000     -31.60250000     -68.65790000
C      -43.34210000     -32.67780000     -69.25050000
C      -42.19780000     -32.35460000     -69.96650000
C      -41.77860000     -31.03800000     -70.00630000
C      -42.50180000     -29.96850000     -69.43900000
H      -44.15630000     -29.48160000     -68.06720000
H      -43.81550000     -33.65050000     -69.25330000
H      -40.90050000     -30.77490000     -70.54850000
H      -42.11390000     -28.97770000     -69.59790000
C      -41.38170000     -33.35360000     -70.64520000
H      -41.57630000     -34.31940000     -70.24540000
H      -40.34680000     -33.04830000     -70.77080000
C      -45.40310000     -31.76060000     -67.94530000
H      -45.73520000     -32.83640000     -67.98570000
H      -45.29090000     -31.41290000     -66.88170000
S      -41.85470000     -33.35910000     -72.52210000
S      -46.69380000     -30.80880000     -68.66210000
C      -43.64010000     -33.64510000     -72.58170000
H      -44.18410000     -32.81160000     -72.06100000
H      -44.04310000     -33.50620000     -73.56210000
C      -47.51560000     -31.92980000     -69.98340000
H      -48.09310000     -31.20920000     -70.61510000
H      -48.27820000     -32.63610000     -69.53380000
C      -46.52580000     -32.78200000     -70.78190000
H      -45.82210000     -32.15420000     -71.43580000
H      -45.89520000     -33.42370000     -70.11830000
C      -44.07860000     -35.01050000     -72.04150000
H      -44.21530000     -34.88430000     -70.98200000
H      -43.30590000     -35.72910000     -72.33950000
C      -45.43760000     -35.51740000     -72.57020000
C      -45.52500000     -36.66690000     -73.34290000
C      -46.72250000     -34.86170000     -72.40090000
H      -44.69660000     -37.32020000     -73.56030000
C      -47.65120000     -35.47950000     -73.24360000
C      -47.29340000     -33.70230000     -71.67090000
C      -48.59160000     -33.42820000     -72.17790000
S      -47.04960000     -36.91910000     -74.07040000
S      -49.16550000     -34.55230000     -73.40670000
H      -49.31590000     -32.68400000     -71.89120000
