40
Properties=species:S:1:pos:R:3 #=T CELL(abcABC):=T 1.889726e+02=T 90.00000=T Traj:=T positionsangstrom=T Step:=T 0=T Bead:=T pbc="F F F"
C      -42.55140000     -34.82690000     -73.78170000
C      -43.27890000     -35.77200000     -73.01450000
C      -43.20140000     -35.62440000     -71.59700000
C      -42.32130000     -34.82320000     -70.93370000
C      -41.56650000     -34.00000000     -71.75040000
C      -41.67870000     -33.94600000     -73.16640000
H      -42.61870000     -34.88550000     -74.86240000
H      -43.92710000     -36.19530000     -70.98010000
H      -40.80940000     -33.37240000     -71.21180000
H      -41.07040000     -33.17070000     -73.59970000
C      -42.23650000     -34.78570000     -69.39830000
H      -41.66800000     -33.89090000     -69.03090000
H      -41.68140000     -35.70800000     -69.10030000
C      -44.24520000     -36.70810000     -73.67750000
H      -44.20860000     -36.47620000     -74.76440000
H      -44.02360000     -37.79330000     -73.66490000
S      -43.88800000     -34.85490000     -68.57010000
S      -46.04540000     -36.63770000     -72.93900000
C      -44.62860000     -33.23280000     -68.99290000
H      -44.09210000     -32.47610000     -68.37210000
H      -44.44490000     -33.11010000     -70.06490000
C      -46.62140000     -34.87880000     -73.15380000
H      -47.65640000     -34.76980000     -73.39180000
H      -45.89160000     -34.29950000     -73.88100000
C      -46.49110000     -34.16980000     -71.82480000
H      -47.24930000     -34.67790000     -71.11550000
H      -45.47580000     -34.26240000     -71.48410000
C      -46.13980000     -33.11700000     -68.78430000
H      -46.34240000     -33.02770000     -67.73080000
H      -46.65550000     -34.06340000     -69.09620000
C      -46.70270000     -31.91690000     -69.46630000
C      -46.82570000     -30.69650000     -68.81430000
C      -47.00420000     -31.83290000     -70.85160000
H      -46.66920000     -30.60370000     -67.71700000
C      -47.38960000     -30.52810000     -71.24350000
C      -46.86310000     -32.69610000     -71.99310000
C      -47.13090000     -32.04890000     -73.18740000
S      -47.42350000     -29.45630000     -69.82760000
S      -47.54770000     -30.35300000     -72.98900000
H      -47.19370000     -32.45470000     -74.18180000
