40
Properties=species:S:1:pos:R:3 #=T CELL(abcABC):=T 1.889726e+02=T 90.00000=T Traj:=T positionsangstrom=T Step:=T 0=T Bead:=T pbc="F F F"
C      -42.60000000     -34.85020000     -73.67510000
C      -43.40990000     -35.76660000     -72.86230000
C      -43.19570000     -35.63830000     -71.48770000
C      -42.35290000     -34.72670000     -70.88880000
C      -41.52960000     -33.98990000     -71.69880000
C      -41.60000000     -34.09260000     -73.12100000
H      -42.74100000     -34.89610000     -74.71780000
H      -43.60730000     -36.31380000     -70.79600000
H      -40.84410000     -33.35760000     -71.12630000
H      -41.07440000     -33.26960000     -73.63160000
C      -42.18710000     -34.71550000     -69.35920000
H      -41.84750000     -33.82890000     -68.89730000
H      -41.56090000     -35.57500000     -69.05470000
C      -44.35760000     -36.62090000     -73.59100000
H      -44.39530000     -36.15660000     -74.56850000
H      -44.13530000     -37.65080000     -73.62720000
S      -43.83350000     -34.80200000     -68.58050000
S      -46.14250000     -36.83390000     -72.87540000
C      -44.50960000     -33.08470000     -69.04740000
H      -43.95960000     -32.32650000     -68.41310000
H      -44.13670000     -32.80450000     -70.03900000
C      -46.84220000     -35.10570000     -73.19770000
H      -47.80300000     -35.33350000     -73.60070000
H      -46.27520000     -34.79600000     -74.11980000
C      -46.82010000     -34.23310000     -71.90160000
H      -47.52100000     -34.66990000     -71.29180000
H      -45.79930000     -34.32390000     -71.39410000
C      -46.01960000     -33.08060000     -68.83940000
H      -46.21390000     -33.04200000     -67.75200000
H      -46.39330000     -34.04430000     -69.26140000
C      -46.61770000     -31.86130000     -69.49740000
C      -46.88010000     -30.66490000     -68.84770000
C      -46.89590000     -31.76400000     -70.87660000
H      -46.78570000     -30.40560000     -67.78800000
C      -47.19640000     -30.47840000     -71.30030000
C      -46.97480000     -32.70470000     -72.01690000
C      -47.29560000     -32.09740000     -73.21410000
S      -47.27760000     -29.38510000     -69.97540000
S      -47.46980000     -30.32880000     -72.97010000
H      -47.49170000     -32.45340000     -74.25040000
