40
Properties=species:S:1:pos:R:3 #=T CELL(abcABC):=T 1.889726e+02=T 90.00000=T Traj:=T positionsangstrom=T Step:=T 0=T Bead:=T pbc="F F F"
C      -43.09230000     -37.08260000     -70.31800000
C      -42.91490000     -35.78940000     -70.98600000
C      -42.71930000     -34.65110000     -70.20810000
C      -42.75050000     -34.69940000     -68.81870000
C      -42.92860000     -35.94680000     -68.19290000
C      -42.97230000     -37.15350000     -68.95940000
H      -43.31290000     -37.95500000     -70.83170000
H      -42.53130000     -33.69340000     -70.67230000
H      -42.90660000     -35.95480000     -67.10310000
H      -43.10750000     -38.10600000     -68.43380000
C      -42.69890000     -33.31440000     -68.00630000
H      -41.64060000     -33.19320000     -67.58430000
H      -43.33240000     -33.34160000     -67.16980000
C      -42.83200000     -35.77490000     -72.43360000
H      -42.52670000     -34.77600000     -72.73370000
H      -42.10400000     -36.46870000     -72.75140000
S      -43.02770000     -31.81060000     -68.95250000
S      -44.50090000     -36.31080000     -73.18620000
C      -44.76510000     -32.16810000     -69.65820000
H      -44.90740000     -33.23780000     -69.34200000
H      -45.36410000     -31.46760000     -68.95870000
C      -45.51570000     -34.82170000     -73.03990000
H      -46.28450000     -34.93340000     -73.81690000
H      -45.01470000     -33.89860000     -73.37620000
C      -46.32830000     -34.54710000     -71.71610000
H      -46.74880000     -35.49730000     -71.47620000
H      -45.69830000     -34.19830000     -70.87590000
C      -44.72400000     -31.77040000     -71.08030000
H      -44.49980000     -32.65800000     -71.66990000
H      -43.87470000     -31.08190000     -71.28000000
C      -45.99940000     -31.14730000     -71.71440000
C      -46.16570000     -29.88690000     -72.15630000
C      -47.11430000     -31.97680000     -72.07290000
H      -45.44030000     -29.06280000     -71.97600000
C      -48.14230000     -31.23310000     -72.66450000
C      -47.35860000     -33.43950000     -72.00930000
C      -48.53120000     -33.80420000     -72.52260000
S      -47.79680000     -29.53850000     -72.82090000
S      -49.43520000     -32.32010000     -73.12560000
H      -48.90170000     -34.82550000     -72.72710000
