40
Properties=species:S:1:pos:R:3 #=T CELL(abcABC):=T 1.889726e+02=T 90.00000=T Traj:=T positionsangstrom=T Step:=T 0=T Bead:=T pbc="F F F"
C      -43.23150000     -30.69510000     -69.06590000
C      -43.54530000     -31.91700000     -68.48420000
C      -43.05910000     -33.07170000     -69.11620000
C      -42.17520000     -33.07330000     -70.17930000
C      -41.84280000     -31.86910000     -70.82000000
C      -42.43360000     -30.67420000     -70.26690000
H      -43.61110000     -29.73060000     -68.75220000
H      -43.28400000     -34.10410000     -68.83110000
H      -41.27640000     -31.79140000     -71.76720000
H      -42.22220000     -29.71800000     -70.65340000
C      -41.79870000     -34.40680000     -70.78400000
H      -42.56640000     -35.15960000     -70.37930000
H      -40.82100000     -34.73300000     -70.54820000
C      -44.47770000     -32.04380000     -67.29660000
H      -44.42600000     -32.97240000     -66.72160000
H      -44.31860000     -31.30090000     -66.52610000
S      -41.77820000     -34.38790000     -72.64870000
S      -46.19660000     -31.75870000     -67.78340000
C      -43.59830000     -34.13160000     -73.07420000
H      -43.84250000     -33.13210000     -72.96800000
H      -43.60610000     -34.39760000     -74.15410000
C      -46.38390000     -33.02050000     -69.14980000
H      -47.41800000     -33.45010000     -68.88860000
H      -45.78960000     -33.86350000     -68.99470000
C      -46.23150000     -32.49390000     -70.59930000
H      -46.47660000     -31.40650000     -70.57450000
H      -45.22100000     -32.69430000     -70.90000000
C      -44.53980000     -35.01030000     -72.24210000
H      -44.56700000     -34.62950000     -71.21300000
H      -44.15020000     -36.06570000     -72.24630000
C      -45.93660000     -35.02640000     -72.78090000
C      -46.23600000     -35.92600000     -73.74690000
C      -47.00500000     -34.00900000     -72.59820000
H      -45.68960000     -36.77160000     -74.16900000
C      -48.12720000     -34.27520000     -73.41390000
C      -47.27010000     -32.99900000     -71.63950000
C      -48.49590000     -32.42340000     -71.79900000
S      -47.85870000     -35.81680000     -74.39250000
S      -49.36130000     -33.09210000     -73.17510000
H      -48.98020000     -31.63690000     -71.25800000
