40
Properties=species:S:1:pos:R:3 #=T CELL(abcABC):=T 1.889726e+02=T 90.00000=T Traj:=T positionsangstrom=T Step:=T 0=T Bead:=T pbc="F F F"
C      -43.18370000     -30.50910000     -69.04670000
C      -43.59470000     -31.82870000     -68.62760000
C      -42.98020000     -32.95350000     -69.20970000
C      -42.01690000     -32.86010000     -70.25290000
C      -41.69830000     -31.55950000     -70.71700000
C      -42.24460000     -30.44840000     -70.03970000
H      -43.69290000     -29.69600000     -68.59220000
H      -43.22630000     -33.93710000     -68.91270000
H      -40.91750000     -31.33950000     -71.44180000
H      -41.98650000     -29.44490000     -70.38410000
C      -41.44980000     -34.13480000     -70.78700000
H      -41.78410000     -35.01080000     -70.19700000
H      -40.34520000     -34.21330000     -70.75720000
C      -44.43500000     -32.10210000     -67.47400000
H      -44.42310000     -33.14410000     -67.10420000
H      -44.12500000     -31.50480000     -66.60200000
S      -41.95920000     -34.40900000     -72.57950000
S      -46.25830000     -31.82690000     -67.88340000
C      -43.77080000     -34.02480000     -72.70490000
H      -44.07620000     -33.14530000     -72.13290000
H      -43.84950000     -33.85860000     -73.73240000
C      -46.49270000     -33.07800000     -69.28560000
H      -47.50410000     -33.35520000     -69.26640000
H      -45.87720000     -34.00340000     -69.14080000
C      -46.06040000     -32.46610000     -70.71280000
H      -46.00790000     -31.41000000     -70.57250000
H      -45.02500000     -32.64160000     -70.93220000
C      -44.62370000     -35.30530000     -72.30140000
H      -44.59650000     -35.38570000     -71.18550000
H      -44.26700000     -36.22670000     -72.66100000
C      -45.99830000     -35.23660000     -72.84800000
C      -46.47390000     -36.15140000     -73.74740000
C      -46.94540000     -34.16930000     -72.59920000
H      -45.90010000     -36.89500000     -74.27510000
C      -48.10780000     -34.33910000     -73.36970000
C      -47.04440000     -32.98210000     -71.79730000
C      -48.29280000     -32.41260000     -71.83360000
S      -48.09920000     -35.81480000     -74.39820000
S      -49.30710000     -33.21910000     -73.03910000
H      -48.63490000     -31.54750000     -71.27390000
