40
Properties=species:S:1:pos:R:3 #=T CELL(abcABC):=T 1.889726e+02=T 90.00000=T Traj:=T positionsangstrom=T Step:=T 0=T Bead:=T pbc="F F F"
C      -43.28610000     -30.50270000     -69.11670000
C      -43.50820000     -31.80630000     -68.64180000
C      -42.92180000     -32.96080000     -69.22490000
C      -41.98170000     -32.81120000     -70.27390000
C      -41.71880000     -31.43670000     -70.73430000
C      -42.33130000     -30.36060000     -70.13740000
H      -43.71220000     -29.60760000     -68.62710000
H      -43.16720000     -33.93950000     -68.74990000
H      -41.05380000     -31.26450000     -71.51220000
H      -42.04930000     -29.40390000     -70.52480000
C      -41.29520000     -34.03760000     -70.83800000
H      -41.57480000     -34.99030000     -70.29850000
H      -40.24440000     -33.90490000     -70.70020000
C      -44.49100000     -31.92950000     -67.50250000
H      -44.33200000     -32.82730000     -66.85590000
H      -44.28160000     -31.05510000     -66.83440000
S      -41.79740000     -34.45570000     -72.58190000
S      -46.29920000     -31.83770000     -67.96390000
C      -43.64980000     -34.30660000     -72.88040000
H      -43.90370000     -33.28690000     -72.65350000
H      -43.68480000     -34.33920000     -74.02300000
C      -46.53060000     -33.19700000     -69.20390000
H      -47.62820000     -33.42400000     -69.09080000
H      -46.08770000     -34.12610000     -68.82930000
C      -46.12070000     -32.65210000     -70.60440000
H      -45.95600000     -31.60420000     -70.60640000
H      -45.19030000     -33.24190000     -70.86860000
C      -44.58240000     -35.30790000     -72.19740000
H      -44.57140000     -35.01420000     -71.10650000
H      -44.15520000     -36.27720000     -72.36240000
C      -46.00670000     -35.18540000     -72.73150000
C      -46.40000000     -36.05990000     -73.72910000
C      -47.07000000     -34.20780000     -72.48310000
H      -45.76630000     -36.84080000     -74.14060000
C      -48.20920000     -34.46490000     -73.28690000
C      -47.15990000     -32.97860000     -71.66040000
C      -48.34680000     -32.32840000     -71.91230000
S      -48.07880000     -35.87360000     -74.29680000
S      -49.38080000     -33.11880000     -73.13000000
H      -48.68370000     -31.42480000     -71.40710000
