40
Properties=species:S:1:pos:R:3 #=T CELL(abcABC):=T 1.889726e+02=T 90.00000=T Traj:=T positionsangstrom=T Step:=T 0=T Bead:=T pbc="F F F"
C      -43.45300000     -30.78380000     -69.50060000
C      -43.51260000     -31.95320000     -68.73270000
C      -42.85150000     -33.11660000     -69.12740000
C      -42.19990000     -33.06060000     -70.35370000
C      -42.05770000     -31.87150000     -71.02910000
C      -42.64580000     -30.66950000     -70.61620000
H      -43.90780000     -29.89500000     -69.09160000
H      -42.90290000     -34.02290000     -68.50460000
H      -41.33440000     -31.91960000     -71.87600000
H      -42.64620000     -29.76720000     -71.24200000
C      -41.53070000     -34.28490000     -70.94180000
H      -42.00910000     -35.13850000     -70.39520000
H      -40.48480000     -34.42480000     -70.85220000
C      -44.39810000     -31.94890000     -67.50550000
H      -44.13900000     -32.86790000     -66.99440000
H      -44.12410000     -31.11750000     -66.86100000
S      -41.75080000     -34.37630000     -72.81160000
S      -46.24830000     -31.82000000     -67.79950000
C      -43.57880000     -34.09770000     -72.95290000
H      -43.70320000     -33.00800000     -73.02940000
H      -43.79330000     -34.52380000     -73.98920000
C      -46.67560000     -32.88690000     -69.18300000
H      -47.65890000     -33.35860000     -69.10530000
H      -45.97840000     -33.68450000     -69.04810000
C      -46.53810000     -32.12680000     -70.52500000
H      -47.12910000     -31.24370000     -70.32980000
H      -45.47800000     -32.10590000     -70.77240000
C      -44.49590000     -34.70570000     -71.85550000
H      -44.66610000     -34.05920000     -70.91100000
H      -44.07250000     -35.62730000     -71.61480000
C      -45.84740000     -35.02710000     -72.42720000
C      -46.09910000     -36.07060000     -73.37010000
C      -47.02000000     -34.15740000     -72.28620000
H      -45.35860000     -36.79390000     -73.65230000
C      -48.06900000     -34.47160000     -73.15120000
C      -47.25060000     -32.91510000     -71.64070000
C      -48.42160000     -32.33850000     -72.09080000
S      -47.74360000     -35.89590000     -74.05660000
S      -49.35500000     -33.25950000     -73.23420000
H      -48.91220000     -31.48670000     -71.61690000
