40
Properties=species:S:1:pos:R:3 #=T CELL(abcABC):=T 1.889726e+02=T 90.00000=T Traj:=T positionsangstrom=T Step:=T 0=T Bead:=T pbc="F F F"
C      -43.26700000     -30.55840000     -69.16320000
C      -43.49940000     -31.82320000     -68.68490000
C      -42.94910000     -32.95030000     -69.25840000
C      -42.11480000     -32.84150000     -70.38280000
C      -41.80790000     -31.55250000     -70.89040000
C      -42.49760000     -30.47530000     -70.36370000
H      -43.78270000     -29.68970000     -68.71170000
H      -43.08500000     -33.97240000     -68.82140000
H      -41.24940000     -31.38730000     -71.81560000
H      -42.30640000     -29.49710000     -70.76890000
C      -41.46260000     -34.10680000     -70.89820000
H      -41.77550000     -34.89600000     -70.24240000
H      -40.37330000     -33.93330000     -70.80030000
C      -44.38630000     -32.01340000     -67.49170000
H      -44.21910000     -32.97490000     -67.04500000
H      -44.31490000     -31.15680000     -66.80730000
S      -41.81820000     -34.60660000     -72.62870000
S      -46.29000000     -31.84290000     -67.80120000
C      -43.58420000     -34.20150000     -72.85180000
H      -43.68370000     -33.12610000     -72.70030000
H      -43.87120000     -34.39660000     -73.93760000
C      -46.52810000     -32.97810000     -69.15790000
H      -47.57800000     -33.32270000     -69.17400000
H      -45.89580000     -33.82390000     -69.11350000
C      -46.30810000     -32.30440000     -70.49120000
H      -46.51880000     -31.22300000     -70.38000000
H      -45.22990000     -32.37540000     -70.85490000
C      -44.55620000     -35.07180000     -72.04630000
H      -44.72820000     -34.75790000     -71.02990000
H      -44.08290000     -36.08230000     -71.87440000
C      -45.99110000     -35.17160000     -72.69070000
C      -46.34580000     -36.16760000     -73.58850000
C      -46.98530000     -34.17700000     -72.51690000
H      -45.71400000     -37.04520000     -73.74040000
C      -48.06540000     -34.43030000     -73.33850000
C      -47.14660000     -32.95280000     -71.61650000
C      -48.39520000     -32.44780000     -71.83690000
S      -47.96240000     -35.80820000     -74.34820000
S      -49.34930000     -33.18850000     -73.15180000
H      -48.62660000     -31.49900000     -71.42580000
