40
Properties=species:S:1:pos:R:3 #=T CELL(abcABC):=T 1.889726e+02=T 90.00000=T Traj:=T positionsangstrom=T Step:=T 0=T Bead:=T pbc="F F F"
C      -43.22320000     -31.00700000     -68.84090000
C      -43.72240000     -32.32090000     -68.58810000
C      -43.14470000     -33.46080000     -69.10270000
C      -42.05870000     -33.34260000     -70.05620000
C      -41.64960000     -32.05460000     -70.37400000
C      -42.12730000     -30.94030000     -69.68240000
H      -43.66090000     -30.19700000     -68.27770000
H      -43.53180000     -34.49100000     -68.71810000
H      -40.80700000     -31.87300000     -71.10520000
H      -41.70470000     -29.96940000     -69.86040000
C      -41.56270000     -34.58310000     -70.76110000
H      -41.93500000     -35.41330000     -70.19320000
H      -40.46710000     -34.54390000     -70.71710000
C      -44.81210000     -32.60750000     -67.56470000
H      -45.09730000     -33.70530000     -67.62330000
H      -44.34970000     -32.56350000     -66.54790000
S      -41.78020000     -34.58960000     -72.68020000
S      -46.38070000     -31.52090000     -67.82810000
C      -43.56750000     -34.39180000     -73.03950000
H      -43.79320000     -33.25040000     -73.02900000
H      -43.68880000     -34.79770000     -73.99040000
C      -47.21080000     -32.36380000     -69.16750000
H      -48.13670000     -31.82780000     -69.37840000
H      -47.60400000     -33.29430000     -68.88340000
C      -46.35210000     -32.45830000     -70.48330000
H      -46.02240000     -31.43330000     -70.68510000
H      -45.52790000     -33.15250000     -70.37950000
C      -44.56730000     -35.12720000     -72.08850000
H      -44.60860000     -34.66750000     -71.09020000
H      -44.27240000     -36.16820000     -72.08700000
C      -45.89200000     -34.94640000     -72.76540000
C      -46.28090000     -35.91380000     -73.71640000
C      -46.98230000     -34.00430000     -72.55700000
H      -45.65910000     -36.74920000     -73.88190000
C      -48.01990000     -34.12760000     -73.45420000
C      -47.22700000     -32.87150000     -71.67070000
C      -48.31730000     -32.08980000     -71.98320000
S      -47.72450000     -35.43500000     -74.60500000
S      -49.14870000     -32.87790000     -73.37150000
H      -48.58750000     -31.15890000     -71.50380000
