40
Properties=species:S:1:pos:R:3 #=T CELL(abcABC):=T 1.889726e+02=T 90.00000=T Traj:=T positionsangstrom=T Step:=T 0=T Bead:=T pbc="F F F"
C      -41.69030000     -35.24560000     -68.90400000
C      -41.97170000     -34.29760000     -69.83590000
C      -42.37800000     -34.66180000     -71.15500000
C      -42.64670000     -36.03670000     -71.43470000
C      -42.53730000     -36.95370000     -70.35220000
C      -41.95790000     -36.59290000     -69.15780000
H      -41.22720000     -35.00800000     -67.88260000
H      -42.33710000     -34.00590000     -72.03690000
H      -42.82630000     -38.01740000     -70.47810000
H      -41.69780000     -37.39060000     -68.48600000
C      -43.26010000     -36.50120000     -72.76140000
H      -42.96680000     -37.51020000     -73.00060000
H      -42.95280000     -35.76370000     -73.51170000
C      -41.85350000     -32.79310000     -69.53120000
H      -41.46910000     -32.68790000     -68.50980000
H      -41.10990000     -32.30640000     -70.17290000
S      -45.15910000     -36.59110000     -72.76920000
S      -43.43760000     -31.86360000     -69.79730000
C      -45.53490000     -34.83770000     -73.13150000
H      -44.79560000     -34.13070000     -72.65370000
H      -45.32660000     -34.61640000     -74.21550000
C      -44.72270000     -32.98790000     -69.02830000
H      -45.03560000     -32.57420000     -68.00960000
H      -44.24260000     -33.93270000     -68.86760000
C      -45.94490000     -33.28650000     -69.90560000
H      -45.63500000     -33.92070000     -70.70290000
H      -46.58850000     -33.82100000     -69.18640000
C      -46.99190000     -34.56160000     -72.72710000
H      -47.04690000     -34.85480000     -71.62970000
H      -47.70100000     -35.11940000     -73.31040000
C      -47.45110000     -33.10890000     -72.83470000
C      -48.18400000     -32.66940000     -73.94000000
C      -47.32500000     -32.17700000     -71.73180000
H      -48.31240000     -33.33790000     -74.76670000
C      -48.01470000     -31.01360000     -72.10590000
C      -46.71470000     -32.08740000     -70.45450000
C      -46.93410000     -30.86250000     -69.89290000
S      -48.72810000     -30.99560000     -73.73470000
S      -47.98860000     -29.81610000     -70.80020000
H      -46.49400000     -30.56760000     -68.92680000
