40
Properties=species:S:1:pos:R:3 #=T CELL(abcABC):=T 1.889726e+02=T 90.00000=T Traj:=T positionsangstrom=T Step:=T 0=T Bead:=T pbc="F F F"
C      -42.26220000     -34.56380000     -68.69760000
C      -42.55570000     -33.84700000     -69.85600000
C      -42.83050000     -34.52540000     -71.06650000
C      -42.89840000     -35.92550000     -71.11840000
C      -42.65560000     -36.66730000     -69.90730000
C      -42.25330000     -35.97350000     -68.75200000
H      -41.87050000     -34.06800000     -67.83730000
H      -42.75770000     -34.04110000     -71.98040000
H      -42.71400000     -37.80430000     -69.78450000
H      -42.11120000     -36.60670000     -67.87590000
C      -43.11550000     -36.68850000     -72.42170000
H      -42.65770000     -37.71220000     -72.32060000
H      -42.62120000     -36.07120000     -73.17950000
C      -42.61310000     -32.34160000     -69.65690000
H      -41.86940000     -32.07680000     -68.94050000
H      -42.36860000     -31.94380000     -70.66570000
S      -44.87050000     -36.83030000     -72.97240000
S      -44.30750000     -31.66450000     -69.14520000
C      -45.37270000     -35.09120000     -73.29900000
H      -44.67500000     -34.38420000     -72.80240000
H      -45.21230000     -34.77610000     -74.29970000
C      -45.29960000     -33.14970000     -68.78700000
H      -45.53290000     -33.09630000     -67.73310000
H      -44.55610000     -33.92100000     -68.85430000
C      -46.52870000     -33.50740000     -69.65400000
H      -46.25200000     -34.33240000     -70.27020000
H      -47.31640000     -33.83410000     -68.94120000
C      -46.77730000     -34.88450000     -72.75070000
H      -46.92290000     -35.13430000     -71.64460000
H      -47.47640000     -35.52930000     -73.26430000
C      -47.20220000     -33.36070000     -72.96230000
C      -47.38040000     -32.84180000     -74.17750000
C      -47.10870000     -32.34340000     -71.93110000
H      -47.38150000     -33.26240000     -75.22030000
C      -47.34280000     -31.10330000     -72.45990000
C      -47.08520000     -32.35930000     -70.50290000
C      -47.23600000     -31.08140000     -69.98060000
S      -47.50740000     -31.06810000     -74.17840000
S      -47.61050000     -29.86690000     -71.19840000
H      -47.19560000     -30.77490000     -68.98780000
