40
Properties=species:S:1:pos:R:3 #=T CELL(abcABC):=T 1.889726e+02=T 90.00000=T Traj:=T positionsangstrom=T Step:=T 0=T Bead:=T pbc="F F F"
C      -46.69180000     -35.20280000     -74.98660000
C      -47.02220000     -33.99710000     -74.34470000
C      -47.76610000     -34.04850000     -73.16510000
C      -47.96030000     -35.29870000     -72.48680000
C      -47.45260000     -36.48110000     -73.07080000
C      -46.87760000     -36.43120000     -74.39110000
H      -46.24450000     -35.17380000     -75.94630000
H      -48.17230000     -33.13980000     -72.62720000
H      -47.63630000     -37.47140000     -72.70870000
H      -46.36330000     -37.29450000     -74.82510000
C      -48.61430000     -35.56270000     -71.19840000
H      -48.10180000     -36.37240000     -70.73210000
H      -49.71090000     -35.80020000     -71.36070000
C      -46.68070000     -32.66120000     -74.97790000
H      -46.88780000     -32.69130000     -76.04490000
H      -47.35680000     -31.88560000     -74.55830000
S      -48.57390000     -33.96390000     -70.04540000
S      -44.89170000     -32.04230000     -74.80430000
C      -47.05180000     -34.20550000     -69.21050000
H      -46.87960000     -33.37170000     -68.50090000
H      -47.07320000     -35.13660000     -68.56700000
C      -44.54300000     -32.53510000     -73.04890000
H      -43.42930000     -32.92230000     -73.03500000
H      -45.20380000     -33.39630000     -72.83380000
C      -44.81360000     -31.43520000     -71.97620000
H      -44.67460000     -30.45900000     -72.54060000
H      -45.84980000     -31.35660000     -71.64180000
C      -45.80010000     -34.32840000     -70.13070000
H      -45.95190000     -33.77670000     -71.05560000
H      -45.67130000     -35.40470000     -70.50030000
C      -44.55650000     -33.84120000     -69.49860000
C      -43.98560000     -34.54020000     -68.39320000
C      -43.87320000     -32.58850000     -69.79430000
H      -44.35560000     -35.54130000     -68.02910000
C      -42.78800000     -32.41180000     -68.94720000
C      -43.91010000     -31.47340000     -70.78250000
C      -42.86300000     -30.55910000     -70.60790000
S      -42.51680000     -33.70350000     -67.75440000
S      -41.82640000     -30.98140000     -69.31420000
H      -42.74930000     -29.67030000     -71.22450000
