40
Properties=species:S:1:pos:R:3 #=T CELL(abcABC):=T 1.889726e+02=T 90.00000=T Traj:=T positionsangstrom=T Step:=T 0=T Bead:=T pbc="F F F"
C      -42.00630000     -33.30050000     -72.81580000
C      -42.83500000     -34.41210000     -73.13020000
C      -43.07160000     -35.40310000     -72.09800000
C      -42.54240000     -35.18570000     -70.83490000
C      -41.76460000     -34.05620000     -70.52570000
C      -41.53490000     -33.10450000     -71.49760000
H      -41.83630000     -32.50550000     -73.60980000
H      -43.55930000     -36.38920000     -72.30110000
H      -41.52570000     -33.89770000     -69.51600000
H      -40.90970000     -32.26880000     -71.17520000
C      -42.72950000     -36.22280000     -69.70510000
H      -41.72950000     -36.62440000     -69.34920000
H      -43.22770000     -37.15800000     -70.04020000
C      -43.44440000     -34.44060000     -74.56130000
H      -43.43270000     -33.45230000     -74.98880000
H      -42.74820000     -35.06130000     -75.18350000
S      -43.60050000     -35.36350000     -68.35950000
S      -45.05090000     -35.28390000     -74.72340000
C      -45.05420000     -34.54820000     -69.03770000
H      -45.52930000     -35.27160000     -69.78520000
H      -45.72550000     -34.30570000     -68.16430000
C      -46.27910000     -34.05860000     -74.22110000
H      -47.18660000     -34.52500000     -74.37250000
H      -46.16480000     -33.21940000     -74.88900000
C      -46.11040000     -33.63680000     -72.77100000
H      -45.99260000     -34.49400000     -72.11310000
H      -45.19210000     -33.01790000     -72.73830000
C      -44.78070000     -33.11990000     -69.68900000
H      -44.32490000     -33.22450000     -70.73690000
H      -44.00620000     -32.52600000     -69.05540000
C      -46.05570000     -32.28720000     -69.72220000
C      -46.51220000     -31.55750000     -68.68220000
C      -47.00710000     -32.13650000     -70.90390000
H      -45.96190000     -31.49380000     -67.76210000
C      -47.93480000     -31.13380000     -70.68600000
C      -47.19780000     -32.75520000     -72.21700000
C      -48.34310000     -32.27350000     -72.82410000
S      -47.88200000     -30.49070000     -69.04040000
S      -49.12170000     -31.00710000     -71.92580000
H      -48.68870000     -32.46340000     -73.79900000
