40
Properties=species:S:1:pos:R:3 #=T CELL(abcABC):=T 1.889726e+02=T 90.00000=T Traj:=T positionsangstrom=T Step:=T 0=T Bead:=T pbc="F F F"
C      -41.81570000     -35.38780000     -70.00990000
C      -41.85810000     -34.40290000     -70.95620000
C      -42.47740000     -34.63380000     -72.20400000
C      -43.21630000     -35.78890000     -72.31000000
C      -43.20590000     -36.83170000     -71.34770000
C      -42.40960000     -36.66040000     -70.22440000
H      -41.26480000     -35.16060000     -69.09560000
H      -42.45370000     -33.91360000     -73.01170000
H      -43.84470000     -37.75350000     -71.37620000
H      -42.39720000     -37.34860000     -69.33670000
C      -43.94350000     -35.95950000     -73.57500000
H      -43.67250000     -36.88160000     -74.15710000
H      -43.88610000     -35.19730000     -74.28690000
C      -41.31270000     -33.02010000     -70.65410000
H      -40.53860000     -33.10820000     -69.89070000
H      -40.90040000     -32.46720000     -71.47310000
S      -45.77890000     -36.44830000     -73.14160000
S      -42.52540000     -31.77240000     -69.97280000
C      -46.52390000     -34.78480000     -72.97590000
H      -45.67420000     -34.04850000     -72.80320000
H      -47.01960000     -34.40390000     -73.87010000
C      -43.82340000     -32.86740000     -69.22080000
H      -44.12370000     -32.34370000     -68.32330000
H      -43.31760000     -33.76700000     -68.95040000
C      -44.93770000     -33.17500000     -70.22070000
H      -44.51440000     -33.62680000     -71.13310000
H      -45.51870000     -33.95060000     -69.76900000
C      -47.46750000     -34.82480000     -71.79850000
H      -46.90310000     -35.19650000     -70.95360000
H      -48.24010000     -35.45870000     -72.10150000
C      -48.01830000     -33.45870000     -71.53030000
C      -49.22130000     -33.05000000     -72.08600000
C      -47.30250000     -32.28330000     -71.05710000
H      -49.98560000     -33.68110000     -72.56760000
C      -47.98370000     -31.09990000     -71.11510000
C      -45.92760000     -32.09660000     -70.54360000
C      -45.66950000     -30.75830000     -70.24580000
S      -49.58580000     -31.30570000     -71.85440000
S      -47.01080000     -29.61880000     -70.72220000
H      -44.71460000     -30.24020000     -70.09480000
