40
Properties=species:S:1:pos:R:3 #=T CELL(abcABC):=T 1.889726e+02=T 90.00000=T Traj:=T positionsangstrom=T Step:=T 0=T Bead:=T pbc="F F F"
C      -41.80670000     -35.16650000     -70.12550000
C      -41.95330000     -34.20970000     -71.17330000
C      -42.62020000     -34.58630000     -72.36530000
C      -43.39120000     -35.75180000     -72.41890000
C      -43.31270000     -36.61980000     -71.30280000
C      -42.53140000     -36.33110000     -70.21570000
H      -41.24030000     -34.96990000     -69.23350000
H      -42.58400000     -33.98000000     -73.31650000
H      -43.89150000     -37.52950000     -71.36410000
H      -42.37450000     -37.06360000     -69.45650000
C      -44.08500000     -36.17780000     -73.69320000
H      -43.55300000     -37.05200000     -74.12360000
H      -43.92100000     -35.34990000     -74.46170000
C      -41.28700000     -32.84800000     -71.10440000
H      -40.33280000     -32.99860000     -70.68430000
H      -41.13560000     -32.37850000     -72.10150000
S      -45.89680000     -36.61780000     -73.51950000
S      -42.34150000     -31.55690000     -70.17440000
C      -46.59960000     -34.96850000     -73.36950000
H      -45.81480000     -34.18230000     -73.48210000
H      -47.37690000     -34.82670000     -74.20260000
C      -43.64550000     -32.62830000     -69.30730000
H      -43.99620000     -32.09260000     -68.49570000
H      -43.04710000     -33.37950000     -68.94510000
C      -44.66890000     -33.09770000     -70.33710000
H      -44.30520000     -33.30690000     -71.31530000
H      -44.98760000     -34.09570000     -69.95320000
C      -47.30540000     -34.87110000     -71.93090000
H      -46.54290000     -35.14760000     -71.24160000
H      -48.09060000     -35.66010000     -71.81210000
C      -47.90240000     -33.47010000     -71.55720000
C      -49.20650000     -33.14480000     -71.91500000
C      -47.16690000     -32.35420000     -70.99380000
H      -49.88350000     -33.85100000     -72.34600000
C      -47.96770000     -31.21560000     -70.84560000
C      -45.85740000     -32.09480000     -70.46620000
C      -45.74350000     -30.80220000     -69.96130000
S      -49.55140000     -31.47760000     -71.35100000
S      -47.16350000     -29.78310000     -70.18150000
H      -44.97880000     -30.34090000     -69.43240000
