40
Properties=species:S:1:pos:R:3 #=T CELL(abcABC):=T 1.889726e+02=T 90.00000=T Traj:=T positionsangstrom=T Step:=T 0=T Bead:=T pbc="F F F"
C      -41.70680000     -35.09870000     -70.33500000
C      -41.85990000     -34.25180000     -71.40520000
C      -42.88820000     -34.58850000     -72.36840000
C      -43.45370000     -35.85580000     -72.44520000
C      -43.23740000     -36.72900000     -71.34880000
C      -42.47430000     -36.27140000     -70.26870000
H      -41.10240000     -34.94350000     -69.46160000
H      -43.05540000     -33.89920000     -73.15010000
H      -43.71130000     -37.69220000     -71.26120000
H      -42.45450000     -36.84140000     -69.39100000
C      -44.14120000     -36.31030000     -73.77940000
H      -43.81690000     -37.33540000     -73.91390000
H      -43.87930000     -35.72070000     -74.63760000
C      -41.21700000     -32.87450000     -71.37420000
H      -40.19630000     -32.88690000     -70.91660000
H      -41.26450000     -32.44130000     -72.32250000
S      -45.96530000     -36.47030000     -73.74820000
S      -42.19200000     -31.61640000     -70.45050000
C      -46.54010000     -34.76640000     -73.22980000
H      -45.78940000     -33.99480000     -73.39040000
H      -47.32900000     -34.49230000     -73.83080000
C      -43.43210000     -32.53990000     -69.43390000
H      -43.75070000     -31.93940000     -68.51500000
H      -42.99540000     -33.47180000     -68.96290000
C      -44.76330000     -33.01860000     -70.17440000
H      -44.36330000     -33.49380000     -71.10220000
H      -45.24230000     -33.84480000     -69.63620000
C      -46.99710000     -34.78910000     -71.73780000
H      -46.13500000     -34.75370000     -71.08440000
H      -47.55350000     -35.70570000     -71.57360000
C      -47.78630000     -33.51590000     -71.43900000
C      -49.08750000     -33.25930000     -71.79820000
C      -47.17980000     -32.35060000     -70.80720000
H      -49.63520000     -33.92770000     -72.36180000
C      -48.07470000     -31.25500000     -70.67280000
C      -45.88610000     -31.96670000     -70.34850000
C      -45.79480000     -30.66270000     -69.89460000
S      -49.66500000     -31.67940000     -71.25150000
S      -47.35790000     -29.77350000     -69.88820000
H      -44.88840000     -30.29320000     -69.53480000
