40
Properties=species:S:1:pos:R:3 #=T CELL(abcABC):=T 1.889726e+02=T 90.00000=T Traj:=T positionsangstrom=T Step:=T 0=T Bead:=T pbc="F F F"
C      -42.00490000     -35.14820000     -70.00950000
C      -41.88820000     -34.22900000     -71.14960000
C      -42.45020000     -34.53840000     -72.36770000
C      -43.18880000     -35.75630000     -72.45210000
C      -43.23770000     -36.60970000     -71.35180000
C      -42.57140000     -36.35050000     -70.18110000
H      -41.54750000     -34.83720000     -69.04200000
H      -42.36730000     -33.75120000     -73.14860000
H      -43.83220000     -37.52000000     -71.53070000
H      -42.68920000     -37.16400000     -69.41690000
C      -44.00900000     -36.10060000     -73.65390000
H      -43.64280000     -36.90130000     -74.23700000
H      -44.07270000     -35.15570000     -74.19840000
C      -41.18770000     -32.94200000     -70.86770000
H      -40.29700000     -33.11380000     -70.23280000
H      -40.76010000     -32.40510000     -71.76870000
S      -45.68300000     -36.61320000     -73.27870000
S      -42.43470000     -31.78780000     -70.04870000
C      -46.68590000     -34.98710000     -73.20410000
H      -46.05340000     -34.16530000     -73.32410000
H      -47.37490000     -35.01280000     -74.03220000
C      -43.72660000     -32.85810000     -69.26490000
H      -44.22390000     -32.41230000     -68.36300000
H      -43.34650000     -33.85200000     -68.90610000
C      -44.93040000     -33.21480000     -70.22300000
H      -44.53260000     -33.75470000     -71.10120000
H      -45.56000000     -33.95390000     -69.66750000
C      -47.35960000     -34.86710000     -71.80060000
H      -46.69620000     -35.06690000     -70.93410000
H      -48.19460000     -35.63570000     -71.69050000
C      -47.99470000     -33.47880000     -71.60660000
C      -49.26440000     -33.02000000     -71.92120000
C      -47.22760000     -32.29200000     -71.16290000
H      -50.06850000     -33.73600000     -72.20810000
C      -47.94680000     -31.10530000     -71.09230000
C      -45.86010000     -32.07760000     -70.58220000
C      -45.73130000     -30.78430000     -70.14280000
S      -49.58210000     -31.32730000     -71.58350000
S      -47.10730000     -29.68110000     -70.41280000
H      -44.89180000     -30.33770000     -69.65290000
