40
Properties=species:S:1:pos:R:3 #=T CELL(abcABC):=T 1.889726e+02=T 90.00000=T Traj:=T positionsangstrom=T Step:=T 0=T Bead:=T pbc="F F F"
C      -41.47750000     -35.89810000     -69.51150000
C      -41.77890000     -34.73240000     -70.17190000
C      -42.33370000     -34.76380000     -71.45090000
C      -42.65990000     -35.95370000     -72.07750000
C      -42.41650000     -37.12020000     -71.40550000
C      -41.79200000     -37.16740000     -70.12110000
H      -41.03630000     -35.73040000     -68.49380000
H      -42.63010000     -33.83240000     -71.90930000
H      -42.73250000     -38.15490000     -71.77230000
H      -41.71270000     -38.10000000     -69.62270000
C      -43.31410000     -36.10170000     -73.45600000
H      -43.07670000     -37.02950000     -73.87730000
H      -43.11800000     -35.31790000     -74.21830000
C      -41.54530000     -33.42340000     -69.46820000
H      -41.28510000     -33.49500000     -68.42230000
H      -40.66600000     -32.98440000     -69.94800000
S      -45.17230000     -36.38450000     -73.15110000
S      -42.83830000     -32.09420000     -69.75710000
C      -45.95530000     -34.67150000     -73.01990000
H      -45.11520000     -34.03400000     -72.69810000
H      -46.24490000     -34.38530000     -74.05690000
C      -44.40950000     -32.30670000     -68.88250000
H      -44.59470000     -31.34930000     -68.37540000
H      -44.31590000     -33.15770000     -68.19150000
C      -45.51540000     -32.75750000     -69.79670000
H      -45.05860000     -33.32700000     -70.56740000
H      -46.18360000     -33.46930000     -69.27370000
C      -47.17770000     -34.63070000     -72.12090000
H      -46.83990000     -34.70280000     -71.04570000
H      -47.86820000     -35.48980000     -72.36830000
C      -47.83850000     -33.22990000     -72.14070000
C      -48.83330000     -32.95470000     -73.05890000
C      -47.49120000     -32.03080000     -71.37320000
H      -49.00740000     -33.54620000     -73.90910000
C      -48.22160000     -30.89270000     -71.75200000
C      -46.45970000     -31.70020000     -70.32320000
C      -46.63770000     -30.39860000     -69.85030000
S      -49.39020000     -31.31100000     -73.05000000
S      -48.01660000     -29.50330000     -70.68500000
H      -46.02880000     -29.91260000     -69.10720000
