40
Properties=species:S:1:pos:R:3 #=T CELL(abcABC):=T 1.889726e+02=T 90.00000=T Traj:=T positionsangstrom=T Step:=T 0=T Bead:=T pbc="F F F"
C      -43.01160000     -30.64910000     -68.52450000
C      -43.88630000     -31.73600000     -68.32110000
C      -43.47100000     -33.02730000     -68.69360000
C      -42.20020000     -33.26080000     -69.29980000
C      -41.39370000     -32.16960000     -69.53150000
C      -41.80190000     -30.88360000     -69.21610000
H      -43.23130000     -29.59410000     -68.08890000
H      -44.17680000     -33.84420000     -68.66660000
H      -40.47310000     -32.38190000     -70.02550000
H      -41.23490000     -29.98480000     -69.58390000
C      -41.68560000     -34.59070000     -69.81060000
H      -42.22940000     -35.52190000     -69.51450000
H      -40.57800000     -34.63700000     -69.69490000
C      -45.29200000     -31.48130000     -67.79970000
H      -45.82560000     -32.36000000     -67.58660000
H      -45.16550000     -30.99710000     -66.84170000
S      -41.83600000     -34.61990000     -71.64720000
S      -46.34100000     -30.39630000     -68.91200000
C      -43.59360000     -34.30840000     -72.08130000
H      -44.00610000     -33.35210000     -71.68460000
H      -43.62180000     -34.05340000     -73.11190000
C      -47.27700000     -31.55450000     -70.11140000
H      -47.93510000     -30.87250000     -70.54820000
H      -47.80920000     -32.20500000     -69.44370000
C      -46.37040000     -32.34280000     -71.14300000
H      -45.53320000     -31.66100000     -71.46880000
H      -45.85410000     -33.05280000     -70.54450000
C      -44.59210000     -35.40260000     -71.92430000
H      -45.03480000     -35.47230000     -70.92150000
H      -44.07760000     -36.40390000     -72.04600000
C      -45.78710000     -35.31840000     -72.86670000
C      -46.04820000     -36.34910000     -73.69050000
C      -46.83860000     -34.31610000     -72.90660000
H      -45.39440000     -37.13390000     -74.02180000
C      -47.92480000     -34.75730000     -73.71590000
C      -47.20220000     -33.06750000     -72.24870000
C      -48.42370000     -32.58040000     -72.63290000
S      -47.48630000     -36.15950000     -74.64670000
S      -49.28630000     -33.67960000     -73.85610000
H      -48.98590000     -31.71120000     -72.20930000
