40
Properties=species:S:1:pos:R:3 #=T CELL(abcABC):=T 1.889726e+02=T 90.00000=T Traj:=T positionsangstrom=T Step:=T 0=T Bead:=T pbc="F F F"
C      -42.76520000     -31.06360000     -68.26320000
C      -43.77330000     -32.03830000     -68.29950000
C      -43.48700000     -33.28400000     -68.91920000
C      -42.22920000     -33.64490000     -69.39710000
C      -41.22860000     -32.65970000     -69.29270000
C      -41.50430000     -31.43030000     -68.66800000
H      -43.11780000     -30.10350000     -67.96960000
H      -44.21050000     -34.11730000     -68.98470000
H      -40.19240000     -32.90200000     -69.44540000
H      -40.69380000     -30.72990000     -68.48840000
C      -41.96280000     -34.99510000     -70.01110000
H      -42.67020000     -35.73030000     -69.69940000
H      -40.97040000     -35.42550000     -69.85480000
C      -45.19970000     -31.69610000     -67.93910000
H      -45.70080000     -32.66330000     -67.77030000
H      -45.02860000     -31.25980000     -66.98780000
S      -41.94650000     -34.82850000     -71.81700000
S      -46.12510000     -30.50400000     -68.93980000
C      -43.56440000     -34.11700000     -72.36950000
H      -43.65600000     -33.08430000     -72.02330000
H      -43.53820000     -34.16740000     -73.53830000
C      -47.27420000     -31.46470000     -70.05040000
H      -47.44160000     -30.71950000     -70.82770000
H      -48.21000000     -31.63670000     -69.55410000
C      -46.69910000     -32.76590000     -70.61560000
H      -45.77770000     -32.49270000     -71.12650000
H      -46.51850000     -33.54420000     -69.89050000
C      -44.69300000     -34.98240000     -71.88050000
H      -44.90420000     -34.69020000     -70.85040000
H      -44.37550000     -36.00770000     -71.97310000
C      -45.95020000     -35.04180000     -72.84900000
C      -45.86330000     -35.73400000     -74.03200000
C      -47.04380000     -34.15980000     -72.78480000
H      -45.07380000     -36.33300000     -74.50960000
C      -47.88290000     -34.38700000     -73.86260000
C      -47.60000000     -33.27170000     -71.74790000
C      -48.78760000     -32.80420000     -72.20590000
S      -47.22980000     -35.46260000     -75.10720000
S      -49.37000000     -33.32600000     -73.72420000
H      -49.49060000     -32.19320000     -71.61710000
