40
Properties=species:S:1:pos:R:3 #=T CELL(abcABC):=T 1.889726e+02=T 90.00000=T Traj:=T positionsangstrom=T Step:=T 0=T Bead:=T pbc="F F F"
C      -43.08830000     -30.58000000     -68.75320000
C      -43.97120000     -31.73710000     -68.58040000
C      -43.49620000     -33.02230000     -68.96610000
C      -42.18060000     -33.19440000     -69.38570000
C      -41.31640000     -32.04780000     -69.43490000
C      -41.75850000     -30.77490000     -69.14310000
H      -43.65430000     -29.64370000     -68.57710000
H      -44.09160000     -33.93420000     -68.73700000
H      -40.23740000     -32.26710000     -69.62030000
H      -41.04480000     -29.95610000     -69.12280000
C      -41.88160000     -34.58260000     -69.90340000
H      -42.59210000     -35.21360000     -69.45290000
H      -40.89750000     -34.92040000     -69.57390000
C      -45.31530000     -31.57710000     -67.99650000
H      -45.85160000     -32.53130000     -68.18700000
H      -45.46260000     -31.32870000     -66.89780000
S      -41.83880000     -34.58750000     -71.75200000
S      -46.39050000     -30.45820000     -69.07770000
C      -43.63510000     -34.09320000     -72.12540000
H      -43.77550000     -33.25150000     -71.52660000
H      -43.58560000     -33.90090000     -73.23000000
C      -47.23540000     -31.69150000     -70.08250000
H      -48.10920000     -31.27610000     -70.65060000
H      -47.67740000     -32.50660000     -69.41280000
C      -46.31640000     -32.28490000     -71.15190000
H      -45.83940000     -31.43020000     -71.63850000
H      -45.64370000     -32.94250000     -70.73060000
C      -44.55180000     -35.27320000     -71.77560000
H      -44.84350000     -35.18290000     -70.72280000
H      -43.97360000     -36.18710000     -71.97420000
C      -45.78160000     -35.36530000     -72.64090000
C      -46.02800000     -36.46220000     -73.36380000
C      -46.85300000     -34.39070000     -72.75830000
H      -45.44030000     -37.34630000     -73.31920000
C      -47.90420000     -34.76450000     -73.62470000
C      -47.18640000     -33.05680000     -72.19490000
C      -48.42710000     -32.58410000     -72.65470000
S      -47.52350000     -36.35650000     -74.33310000
S      -49.13600000     -33.56470000     -73.89710000
H      -48.86390000     -31.59630000     -72.48300000
