40
Properties=species:S:1:pos:R:3 #=T CELL(abcABC):=T 1.889726e+02=T 90.00000=T Traj:=T positionsangstrom=T Step:=T 0=T Bead:=T pbc="F F F"
C      -42.91250000     -30.94800000     -68.45080000
C      -43.93150000     -31.91510000     -68.49830000
C      -43.54140000     -33.21650000     -68.98150000
C      -42.30340000     -33.52180000     -69.54150000
C      -41.31150000     -32.56610000     -69.28580000
C      -41.59010000     -31.27880000     -68.73920000
H      -43.05010000     -29.92320000     -68.04340000
H      -44.38950000     -33.91670000     -68.98420000
H      -40.39270000     -32.86400000     -69.67290000
H      -40.72510000     -30.58570000     -68.79370000
C      -42.00020000     -34.94110000     -70.04910000
H      -42.89160000     -35.54880000     -69.84030000
H      -41.21000000     -35.53300000     -69.50690000
C      -45.29140000     -31.74240000     -67.96150000
H      -45.96090000     -32.59200000     -68.00380000
H      -45.33190000     -31.28570000     -66.93950000
S      -41.79690000     -34.85320000     -71.91290000
S      -46.18710000     -30.34730000     -68.98660000
C      -43.48780000     -34.24830000     -72.36480000
H      -43.66240000     -33.30100000     -71.87890000
H      -43.55330000     -34.13350000     -73.42690000
C      -47.29660000     -31.33900000     -70.07880000
H      -47.42470000     -30.70700000     -70.95350000
H      -48.32320000     -31.46880000     -69.70310000
C      -46.77210000     -32.70900000     -70.54020000
H      -45.71980000     -32.64370000     -70.74840000
H      -46.80790000     -33.32640000     -69.57960000
C      -44.59190000     -35.19280000     -71.82940000
H      -44.83740000     -34.91000000     -70.78190000
H      -44.22350000     -36.22350000     -71.86090000
C      -45.81670000     -35.11560000     -72.77940000
C      -45.77470000     -35.84690000     -73.94540000
C      -46.97230000     -34.25560000     -72.68500000
H      -45.15180000     -36.63460000     -74.27010000
C      -47.83400000     -34.44980000     -73.78460000
C      -47.50250000     -33.26000000     -71.68810000
C      -48.65470000     -32.72880000     -72.12430000
S      -47.28760000     -35.51070000     -74.98020000
S      -49.33180000     -33.51850000     -73.67020000
H      -49.16380000     -31.90300000     -71.67780000
