40
Properties=species:S:1:pos:R:3 #=T CELL(abcABC):=T 1.889726e+02=T 90.00000=T Traj:=T positionsangstrom=T Step:=T 0=T Bead:=T pbc="F F F"
C      -43.72300000     -29.95940000     -69.90230000
C      -44.19500000     -30.88720000     -69.01970000
C      -43.63150000     -32.22460000     -69.07410000
C      -42.53360000     -32.49850000     -69.88670000
C      -42.08680000     -31.52700000     -70.75360000
C      -42.68110000     -30.26020000     -70.80470000
H      -44.21660000     -28.98210000     -69.74210000
H      -43.94480000     -32.99650000     -68.39700000
H      -41.32210000     -31.77310000     -71.50760000
H      -42.35740000     -29.55230000     -71.55610000
C      -41.85310000     -33.84370000     -69.77700000
H      -42.32570000     -34.46920000     -69.03980000
H      -40.87630000     -33.63500000     -69.38860000
C      -45.32000000     -30.61220000     -68.10900000
H      -45.39120000     -31.44690000     -67.45710000
H      -45.28340000     -29.67930000     -67.56830000
S      -41.49340000     -34.74890000     -71.39110000
S      -46.92060000     -30.38310000     -69.00990000
C      -43.11030000     -35.12420000     -72.19850000
H      -43.35070000     -34.22000000     -72.84930000
H      -43.03190000     -36.01290000     -72.90070000
C      -47.30890000     -31.98440000     -69.85280000
H      -48.32360000     -31.68300000     -70.13910000
H      -47.32870000     -32.71230000     -68.97840000
C      -46.48290000     -32.31030000     -71.12090000
H      -46.23280000     -31.32550000     -71.52170000
H      -45.64940000     -32.84990000     -70.78970000
C      -44.33010000     -35.20030000     -71.22600000
H      -44.46250000     -34.20480000     -70.69970000
H      -44.18900000     -35.94220000     -70.52740000
C      -45.54620000     -35.46190000     -72.12350000
C      -45.77020000     -36.72920000     -72.58800000
C      -46.58170000     -34.52730000     -72.56490000
H      -45.09150000     -37.53330000     -72.38320000
C      -47.50170000     -35.20640000     -73.41390000
C      -47.14900000     -33.25490000     -72.16070000
C      -48.30070000     -32.88290000     -72.74880000
S      -47.09840000     -36.88880000     -73.72560000
S      -48.91350000     -34.20160000     -73.82540000
H      -48.89320000     -32.05970000     -72.42030000
