40
Properties=species:S:1:pos:R:3 #=T CELL(abcABC):=T 1.889726e+02=T 90.00000=T Traj:=T positionsangstrom=T Step:=T 0=T Bead:=T pbc="F F F"
C      -46.52470000     -35.09410000     -74.92530000
C      -46.93220000     -33.91760000     -74.33690000
C      -47.75540000     -34.02510000     -73.17330000
C      -48.01740000     -35.25130000     -72.64410000
C      -47.61690000     -36.43940000     -73.33830000
C      -46.81460000     -36.36620000     -74.45060000
H      -45.96390000     -34.93340000     -75.86830000
H      -48.08980000     -33.13170000     -72.66530000
H      -47.87760000     -37.48260000     -73.04620000
H      -46.23900000     -37.18490000     -74.87660000
C      -48.71850000     -35.39150000     -71.31240000
H      -48.24290000     -36.11730000     -70.65360000
H      -49.86570000     -35.59490000     -71.44970000
C      -46.70660000     -32.51640000     -74.80910000
H      -47.05730000     -32.34930000     -75.86690000
H      -47.14080000     -31.66970000     -74.23850000
S      -48.71100000     -33.78230000     -70.33830000
S      -44.91380000     -32.20770000     -74.80890000
C      -47.14510000     -33.62850000     -69.34280000
H      -47.09950000     -32.58370000     -69.07040000
H      -47.14700000     -34.18620000     -68.43900000
C      -44.06280000     -32.42060000     -73.07480000
H      -43.00360000     -32.08400000     -73.28660000
H      -44.05070000     -33.55170000     -72.79820000
C      -44.65180000     -31.62400000     -71.90130000
H      -44.66180000     -30.56590000     -72.12200000
H      -45.57630000     -32.11820000     -71.57630000
C      -45.97670000     -34.28140000     -70.12670000
H      -46.01120000     -34.03020000     -71.25140000
H      -46.08110000     -35.32360000     -69.86770000
C      -44.62820000     -33.86840000     -69.43060000
C      -44.13420000     -34.58240000     -68.37540000
C      -43.82510000     -32.67890000     -69.66250000
H      -44.57130000     -35.36000000     -67.83270000
C      -42.71830000     -32.52380000     -68.80790000
C      -43.74740000     -31.75310000     -70.70300000
C      -42.71090000     -30.79830000     -70.59530000
S      -42.68810000     -33.82160000     -67.61060000
S      -41.73960000     -31.12520000     -69.17570000
H      -42.59990000     -30.03310000     -71.35590000
