40
Properties=species:S:1:pos:R:3 #=T CELL(abcABC):=T 1.889726e+02=T 90.00000=T Traj:=T positionsangstrom=T Step:=T 0=T Bead:=T pbc="F F F"
C      -43.57150000     -30.26430000     -69.16970000
C      -44.10950000     -31.41060000     -68.63570000
C      -43.49160000     -32.64930000     -68.80580000
C      -42.27580000     -32.73040000     -69.50470000
C      -41.73480000     -31.54120000     -70.06110000
C      -42.32430000     -30.27230000     -69.84260000
H      -44.08090000     -29.29460000     -69.19050000
H      -44.00510000     -33.58950000     -68.53280000
H      -40.80580000     -31.60960000     -70.58950000
H      -41.97800000     -29.38810000     -70.38090000
C      -41.64420000     -34.04100000     -69.89530000
H      -42.29080000     -34.79050000     -69.42810000
H      -40.58820000     -34.06710000     -69.66760000
C      -45.44770000     -31.33760000     -67.86960000
H      -45.70490000     -32.33280000     -67.52980000
H      -45.28860000     -30.72620000     -66.95060000
S      -41.70550000     -34.30270000     -71.73590000
S      -46.83310000     -30.67300000     -69.06220000
C      -43.46440000     -34.14480000     -72.27510000
H      -43.84070000     -33.16410000     -72.10740000
H      -43.39650000     -34.33920000     -73.33250000
C      -47.14810000     -32.09330000     -70.18930000
H      -48.17390000     -31.93840000     -70.50260000
H      -47.16310000     -33.03050000     -69.64400000
C      -46.27570000     -32.19600000     -71.46190000
H      -46.23830000     -31.16240000     -71.92830000
H      -45.30040000     -32.52890000     -71.23970000
C      -44.39870000     -35.18690000     -71.58290000
H      -44.65190000     -34.74270000     -70.53820000
H      -43.88890000     -36.12390000     -71.42370000
C      -45.62670000     -35.47640000     -72.37560000
C      -45.95050000     -36.77930000     -72.75090000
C      -46.71020000     -34.55390000     -72.69370000
H      -45.34700000     -37.64260000     -72.58200000
C      -47.78320000     -35.14130000     -73.32530000
C      -46.91400000     -33.10030000     -72.53360000
C      -48.03020000     -32.64580000     -73.23200000
S      -47.48610000     -36.85540000     -73.58750000
S      -48.88680000     -33.95680000     -73.95180000
H      -48.42550000     -31.68110000     -73.38740000
