40
Properties=species:S:1:pos:R:3 #=T CELL(abcABC):=T 1.889726e+02=T 90.00000=T Traj:=T positionsangstrom=T Step:=T 0=T Bead:=T pbc="F F F"
C      -43.99450000     -30.14400000     -70.46520000
C      -44.26220000     -30.78670000     -69.23260000
C      -43.55260000     -31.93510000     -69.00130000
C      -42.48080000     -32.38840000     -69.73410000
C      -42.10670000     -31.65940000     -70.88410000
C      -42.89270000     -30.54090000     -71.23930000
H      -44.53660000     -29.27360000     -70.73280000
H      -43.84020000     -32.48230000     -68.05710000
H      -41.23550000     -32.01750000     -71.43280000
H      -42.83600000     -29.99750000     -72.23260000
C      -41.80860000     -33.74400000     -69.50980000
H      -42.39240000     -34.41700000     -68.91000000
H      -40.85260000     -33.69380000     -69.05200000
C      -45.35340000     -30.26380000     -68.35630000
H      -45.44150000     -30.79520000     -67.41170000
H      -45.21580000     -29.21440000     -68.21620000
S      -41.52260000     -34.69210000     -71.15540000
S      -46.93550000     -30.29330000     -69.29080000
C      -43.23990000     -34.70220000     -71.86250000
H      -43.62090000     -33.63320000     -72.06510000
H      -43.08240000     -35.05290000     -72.90820000
C      -47.10790000     -31.99360000     -70.02260000
H      -48.21910000     -31.83600000     -70.34580000
H      -47.01260000     -32.70300000     -69.20410000
C      -46.20220000     -32.37680000     -71.23820000
H      -45.85340000     -31.50300000     -71.77200000
H      -45.26550000     -32.74250000     -70.79820000
C      -44.30570000     -35.41850000     -71.10340000
H      -44.57430000     -34.88520000     -70.29830000
H      -43.92680000     -36.36230000     -70.71360000
C      -45.50670000     -35.57060000     -72.03900000
C      -45.70540000     -36.82400000     -72.61170000
C      -46.59540000     -34.70620000     -72.41880000
H      -45.19950000     -37.74940000     -72.50840000
C      -47.54820000     -35.31080000     -73.21280000
C      -46.87980000     -33.28460000     -72.20250000
C      -48.09920000     -32.90110000     -72.74760000
S      -47.21960000     -36.98320000     -73.62090000
S      -48.94040000     -34.25730000     -73.62240000
H      -48.57400000     -31.94230000     -72.92560000
