40
Properties=species:S:1:pos:R:3 #=T CELL(abcABC):=T 1.889726e+02=T 90.00000=T Traj:=T positionsangstrom=T Step:=T 0=T Bead:=T pbc="F F F"
C      -43.70240000     -30.01870000     -69.80440000
C      -44.18500000     -31.04230000     -69.02480000
C      -43.54140000     -32.28580000     -68.98970000
C      -42.37170000     -32.51800000     -69.81350000
C      -41.93440000     -31.45100000     -70.55800000
C      -42.49960000     -30.18840000     -70.56610000
H      -44.24110000     -29.04400000     -69.80820000
H      -43.95460000     -33.15560000     -68.42470000
H      -40.98050000     -31.58000000     -71.05450000
H      -42.08340000     -29.44820000     -71.27130000
C      -41.79420000     -33.88470000     -69.85050000
H      -42.37440000     -34.61040000     -69.28070000
H      -40.77820000     -33.89210000     -69.45200000
C      -45.41560000     -30.95260000     -68.11080000
H      -45.47700000     -31.99650000     -67.66490000
H      -45.23580000     -30.27270000     -67.23640000
S      -41.53250000     -34.70430000     -71.49380000
S      -46.97010000     -30.51350000     -68.98620000
C      -43.22810000     -35.04260000     -72.14510000
H      -43.33380000     -34.36330000     -72.96620000
H      -43.21490000     -36.05610000     -72.52990000
C      -47.40050000     -32.01230000     -69.97940000
H      -48.40740000     -31.94600000     -70.31510000
H      -47.25250000     -32.91810000     -69.32030000
C      -46.52720000     -32.15380000     -71.25280000
H      -46.46330000     -31.21220000     -71.78820000
H      -45.48360000     -32.38580000     -70.90820000
C      -44.43710000     -35.04280000     -71.18110000
H      -44.59530000     -34.14060000     -70.57230000
H      -44.21970000     -35.79000000     -70.43220000
C      -45.61980000     -35.47340000     -72.03050000
C      -45.68780000     -36.68370000     -72.71160000
C      -46.69610000     -34.58030000     -72.41860000
H      -45.03740000     -37.49710000     -72.35710000
C      -47.57000000     -35.16630000     -73.31960000
C      -47.19590000     -33.24080000     -72.12450000
C      -48.24470000     -32.83940000     -72.86570000
S      -47.11790000     -36.80600000     -73.78880000
S      -48.84120000     -34.13590000     -73.88680000
H      -48.64260000     -31.78410000     -72.90580000
