40
Properties=species:S:1:pos:R:3 #=T CELL(abcABC):=T 1.889726e+02=T 90.00000=T Traj:=T positionsangstrom=T Step:=T 0=T Bead:=T pbc="F F F"
C      -42.09990000     -34.90400000     -72.64790000
C      -42.14510000     -34.36360000     -71.33860000
C      -42.92850000     -34.99060000     -70.36130000
C      -43.59000000     -36.14940000     -70.61940000
C      -43.47520000     -36.71650000     -71.88120000
C      -42.80480000     -36.04470000     -72.92360000
H      -41.58870000     -34.35050000     -73.45290000
H      -42.78720000     -34.59220000     -69.35040000
H      -43.95640000     -37.66320000     -72.12090000
H      -42.74770000     -36.42770000     -73.93800000
C      -44.21560000     -36.92350000     -69.50010000
H      -43.48630000     -37.19820000     -68.77400000
H      -44.57560000     -37.89950000     -69.90970000
C      -41.43430000     -33.12240000     -70.85000000
H      -41.73070000     -32.99530000     -69.83600000
H      -40.36350000     -33.18020000     -70.86330000
S      -45.57960000     -36.08450000     -68.52760000
S      -41.76550000     -31.63570000     -71.90990000
C      -46.40100000     -34.86890000     -69.79050000
H      -45.83460000     -34.91230000     -70.73210000
H      -47.34600000     -35.25680000     -69.99940000
C      -43.57890000     -31.36170000     -72.07580000
H      -43.67660000     -30.74950000     -72.97400000
H      -43.79300000     -30.78220000     -71.14690000
C      -44.55960000     -32.56460000     -72.26430000
H      -44.24780000     -33.06910000     -73.08790000
H      -44.69110000     -33.17000000     -71.34620000
C      -46.35510000     -33.37930000     -69.28410000
H      -45.34070000     -33.07610000     -69.22130000
H      -46.72490000     -33.21030000     -68.29810000
C      -47.25050000     -32.64440000     -70.19570000
C      -48.54320000     -32.34740000     -69.77220000
C      -47.08060000     -32.19210000     -71.58040000
H      -49.02090000     -32.46940000     -68.76550000
C      -48.25890000     -31.63640000     -72.10890000
C      -45.97890000     -32.16490000     -72.57180000
C      -46.33590000     -31.58250000     -73.74430000
S      -49.56250000     -31.57310000     -71.01880000
S      -48.06710000     -31.21830000     -73.84890000
H      -45.64360000     -31.34010000     -74.55530000
