40
Properties=species:S:1:pos:R:3 #=T CELL(abcABC):=T 1.889726e+02=T 90.00000=T Traj:=T positionsangstrom=T Step:=T 0=T Bead:=T pbc="F F F"
C      -42.34080000     -35.27230000     -72.69440000
C      -42.03500000     -34.50760000     -71.50310000
C      -42.51820000     -34.91790000     -70.23390000
C      -43.31160000     -36.04440000     -70.11510000
C      -43.59190000     -36.77390000     -71.28970000
C      -43.14180000     -36.41250000     -72.59520000
H      -41.97310000     -34.85230000     -73.67410000
H      -42.30870000     -34.23620000     -69.40620000
H      -44.30830000     -37.59700000     -71.26570000
H      -43.41640000     -37.05530000     -73.46690000
C      -43.96970000     -36.54830000     -68.86990000
H      -43.27460000     -36.98140000     -68.17230000
H      -44.73120000     -37.32010000     -69.06520000
C      -41.24650000     -33.27820000     -71.66820000
H      -41.15720000     -32.81510000     -70.64640000
H      -40.31110000     -33.50500000     -72.19410000
S      -44.92010000     -35.28780000     -67.94630000
S      -41.99240000     -31.93600000     -72.75470000
C      -46.11530000     -34.60880000     -69.19390000
H      -45.88080000     -35.20940000     -70.08460000
H      -47.12470000     -34.81980000     -68.88390000
C      -43.75380000     -31.75980000     -72.14160000
H      -44.07550000     -30.71550000     -72.31740000
H      -43.77250000     -31.83340000     -71.10400000
C      -44.76380000     -32.81880000     -72.70780000
H      -44.48520000     -32.95870000     -73.73340000
H      -44.73760000     -33.62970000     -72.06450000
C      -46.10550000     -33.13840000     -69.46510000
H      -45.09320000     -32.83990000     -69.85680000
H      -46.08970000     -32.61580000     -68.43690000
C      -47.25300000     -32.55190000     -70.29180000
C      -48.52780000     -32.45550000     -69.82160000
C      -47.18470000     -32.23430000     -71.68300000
H      -48.86260000     -32.77120000     -68.87500000
C      -48.41960000     -31.80600000     -72.16100000
C      -46.14080000     -32.19390000     -72.75930000
C      -46.65620000     -31.62400000     -73.92370000
S      -49.68090000     -31.75870000     -70.92720000
S      -48.36100000     -31.13380000     -73.83440000
H      -46.11800000     -31.37120000     -74.78680000
