40
Properties=species:S:1:pos:R:3 #=T CELL(abcABC):=T 1.889726e+02=T 90.00000=T Traj:=T positionsangstrom=T Step:=T 0=T Bead:=T pbc="F F F"
C      -43.67330000     -29.79270000     -70.90850000
C      -44.10190000     -30.49440000     -69.77440000
C      -43.50560000     -31.74580000     -69.43040000
C      -42.37340000     -32.22050000     -70.20280000
C      -41.92270000     -31.45980000     -71.25730000
C      -42.56740000     -30.24350000     -71.60910000
H      -44.06520000     -28.79740000     -71.12420000
H      -43.81260000     -32.19850000     -68.43980000
H      -41.09960000     -31.86090000     -71.79590000
H      -42.24840000     -29.80890000     -72.60550000
C      -41.55970000     -33.35690000     -69.68310000
H      -41.69150000     -33.64260000     -68.64130000
H      -40.49160000     -33.17490000     -69.91700000
C      -45.19520000     -29.84290000     -68.96320000
H      -45.22160000     -30.08150000     -67.88450000
H      -45.04680000     -28.75410000     -69.14660000
S      -41.84470000     -34.94170000     -70.62560000
S      -46.97500000     -30.28990000     -69.47180000
C      -43.50350000     -35.06460000     -71.49270000
H      -43.76250000     -34.17430000     -71.99580000
H      -43.27510000     -35.70610000     -72.32430000
C      -46.91270000     -32.10780000     -69.82390000
H      -47.96420000     -32.35920000     -69.81100000
H      -46.30740000     -32.54690000     -69.04100000
C      -46.29890000     -32.38520000     -71.24180000
H      -46.35640000     -31.47530000     -71.89100000
H      -45.25060000     -32.53880000     -71.10030000
C      -44.72510000     -35.48110000     -70.63200000
H      -44.98770000     -34.67790000     -69.94880000
H      -44.45740000     -36.35020000     -69.93630000
C      -45.83370000     -35.80810000     -71.59920000
C      -45.94280000     -37.06450000     -72.20520000
C      -46.70880000     -34.80620000     -72.17350000
H      -45.22570000     -37.88590000     -72.14550000
C      -47.53710000     -35.37440000     -73.13550000
C      -46.97060000     -33.44430000     -71.98510000
C      -48.09610000     -33.04840000     -72.70870000
S      -47.12940000     -37.05300000     -73.48940000
S      -48.80920000     -34.31550000     -73.72290000
H      -48.49680000     -32.00370000     -72.66320000
