40
Properties=species:S:1:pos:R:3 #=T CELL(abcABC):=T 1.889726e+02=T 90.00000=T Traj:=T positionsangstrom=T Step:=T 0=T Bead:=T pbc="F F F"
C      -43.70530000     -29.82140000     -71.05130000
C      -44.05560000     -30.37300000     -69.82570000
C      -43.42960000     -31.58440000     -69.47570000
C      -42.38150000     -32.20480000     -70.18210000
C      -41.93920000     -31.54140000     -71.35660000
C      -42.67400000     -30.40020000     -71.77770000
H      -44.26630000     -28.97270000     -71.43220000
H      -43.87870000     -32.21570000     -68.69790000
H      -41.05970000     -31.84240000     -71.91950000
H      -42.33930000     -29.88500000     -72.66130000
C      -41.77580000     -33.50780000     -69.60290000
H      -42.22330000     -33.60140000     -68.63170000
H      -40.70030000     -33.28760000     -69.37830000
C      -45.13940000     -29.98120000     -68.84250000
H      -45.06680000     -30.53880000     -67.93940000
H      -45.07510000     -28.92380000     -68.51980000
S      -41.81290000     -35.00710000     -70.61210000
S      -46.89200000     -30.22880000     -69.42150000
C      -43.41590000     -34.84850000     -71.49180000
H      -43.64470000     -33.79440000     -71.69830000
H      -43.46540000     -35.51320000     -72.38200000
C      -46.85570000     -32.07450000     -69.79900000
H      -47.87640000     -32.40040000     -69.73400000
H      -46.43000000     -32.69790000     -68.91510000
C      -46.17870000     -32.43970000     -71.13680000
H      -46.00380000     -31.48890000     -71.67380000
H      -45.25590000     -32.90220000     -71.00580000
C      -44.59400000     -35.42980000     -70.71830000
H      -44.87200000     -34.80840000     -69.86730000
H      -44.29540000     -36.46500000     -70.33780000
C      -45.79060000     -35.74040000     -71.69670000
C      -45.96910000     -37.03940000     -72.16740000
C      -46.74470000     -34.77880000     -72.28040000
H      -45.56570000     -37.94630000     -71.69500000
C      -47.60960000     -35.35180000     -73.19540000
C      -47.00470000     -33.37890000     -72.01620000
C      -48.18860000     -33.09100000     -72.69560000
S      -47.19520000     -37.07480000     -73.38860000
S      -48.82090000     -34.30630000     -73.74470000
H      -48.64790000     -32.05790000     -72.68280000
