40
Properties=species:S:1:pos:R:3 #=T CELL(abcABC):=T 1.889726e+02=T 90.00000=T Traj:=T positionsangstrom=T Step:=T 0=T Bead:=T pbc="F F F"
C      -41.65080000     -34.63190000     -72.33380000
C      -42.07420000     -34.26460000     -71.04760000
C      -42.98770000     -35.17150000     -70.45160000
C      -43.45010000     -36.34470000     -71.04040000
C      -42.91170000     -36.70020000     -72.28610000
C      -41.99280000     -35.88230000     -72.91000000
H      -40.93450000     -34.04830000     -72.86260000
H      -43.40060000     -34.86510000     -69.51310000
H      -43.24050000     -37.58160000     -72.79590000
H      -41.80070000     -36.17590000     -73.95770000
C      -44.58690000     -37.17980000     -70.41350000
H      -44.09810000     -38.03990000     -69.87870000
H      -45.22650000     -37.48310000     -71.24070000
C      -41.58670000     -33.01420000     -70.39870000
H      -42.01870000     -32.93450000     -69.44830000
H      -40.51080000     -32.99630000     -70.27870000
S      -45.62100000     -36.34940000     -69.12070000
S      -41.99810000     -31.60960000     -71.54180000
C      -46.49950000     -35.00090000     -70.14900000
H      -46.00320000     -34.77050000     -71.07170000
H      -47.51700000     -35.33000000     -70.44010000
C      -43.83620000     -31.62590000     -71.49330000
H      -43.99020000     -30.78800000     -72.23410000
H      -44.19070000     -31.19850000     -70.53900000
C      -44.65520000     -32.75930000     -72.04570000
H      -44.21870000     -33.30160000     -72.89550000
H      -44.69460000     -33.56950000     -71.37960000
C      -46.62900000     -33.76210000     -69.35810000
H      -45.62000000     -33.32850000     -69.16480000
H      -47.14470000     -33.94360000     -68.43060000
C      -47.46350000     -32.77040000     -70.18030000
C      -48.72510000     -32.40500000     -69.82530000
C      -47.15990000     -32.23700000     -71.51180000
H      -49.29350000     -32.68440000     -68.99090000
C      -48.24820000     -31.50800000     -72.08440000
C      -46.04070000     -32.19800000     -72.35680000
C      -46.23330000     -31.44800000     -73.49610000
S      -49.56600000     -31.31110000     -71.00510000
S      -47.84560000     -30.82130000     -73.65350000
H      -45.49570000     -31.38260000     -74.26480000
