40
Properties=species:S:1:pos:R:3 #=T CELL(abcABC):=T 1.889726e+02=T 90.00000=T Traj:=T positionsangstrom=T Step:=T 0=T Bead:=T pbc="F F F"
C      -46.31250000     -34.86480000     -74.94880000
C      -46.72530000     -33.67810000     -74.35990000
C      -47.46660000     -33.72140000     -73.21930000
C      -47.93310000     -34.93770000     -72.68700000
C      -47.68570000     -36.14190000     -73.39580000
C      -46.86350000     -36.08530000     -74.54600000
H      -45.55290000     -34.83890000     -75.67330000
H      -47.65330000     -32.89180000     -72.55560000
H      -47.95120000     -37.11590000     -73.04900000
H      -46.57850000     -36.92540000     -75.12130000
C      -48.66280000     -35.04590000     -71.34000000
H      -48.23430000     -35.94000000     -70.74440000
H      -49.70220000     -35.20440000     -71.52190000
C      -46.34920000     -32.37750000     -74.99670000
H      -46.52220000     -32.50600000     -76.11890000
H      -46.79720000     -31.44120000     -74.56060000
S      -48.90590000     -33.62190000     -70.16980000
S      -44.46960000     -32.28260000     -74.90400000
C      -47.22070000     -33.49260000     -69.31850000
H      -47.05800000     -32.48770000     -69.01340000
H      -47.38170000     -34.13100000     -68.42590000
C      -44.15430000     -32.68260000     -73.09180000
H      -43.03000000     -32.80070000     -73.06980000
H      -44.60910000     -33.64010000     -72.82580000
C      -44.57630000     -31.66080000     -71.96020000
H      -44.60850000     -30.58580000     -72.19110000
H      -45.62190000     -31.79610000     -71.76470000
C      -46.12210000     -34.14910000     -70.15320000
H      -46.21450000     -33.83190000     -71.15840000
H      -46.42350000     -35.21370000     -70.30040000
C      -44.77350000     -33.97630000     -69.48410000
C      -44.57850000     -34.58010000     -68.24810000
C      -43.84380000     -32.91020000     -69.76160000
H      -45.06970000     -35.54040000     -67.87850000
C      -42.77860000     -32.87560000     -68.88360000
C      -43.66930000     -31.97180000     -70.80660000
C      -42.59330000     -31.09690000     -70.56710000
S      -43.05860000     -33.94600000     -67.45420000
S      -41.75820000     -31.46550000     -69.09140000
H      -42.32130000     -30.21490000     -71.24930000
