40
Properties=species:S:1:pos:R:3 #=T CELL(abcABC):=T 1.889726e+02=T 90.00000=T Traj:=T positionsangstrom=T Step:=T 0=T Bead:=T pbc="F F F"
C      -41.27780000     -34.87650000     -71.23530000
C      -42.28110000     -34.72250000     -70.26590000
C      -43.42700000     -35.54290000     -70.24010000
C      -43.44880000     -36.64820000     -71.15150000
C      -42.39190000     -36.85700000     -72.08300000
C      -41.34200000     -35.94410000     -72.17510000
H      -40.46230000     -34.11610000     -71.24110000
H      -44.37110000     -35.25580000     -69.76000000
H      -42.45420000     -37.75950000     -72.68040000
H      -40.63800000     -36.10440000     -73.03960000
C      -44.58970000     -37.63070000     -71.19190000
H      -44.38670000     -38.35970000     -70.34400000
H      -44.52220000     -38.15370000     -72.13970000
C      -42.18070000     -33.45550000     -69.42860000
H      -43.06060000     -33.42190000     -68.69500000
H      -41.28080000     -33.71030000     -68.93000000
S      -46.29350000     -36.89740000     -70.79060000
S      -41.99460000     -31.87730000     -70.27430000
C      -46.33900000     -35.18230000     -71.55760000
H      -45.30630000     -34.97430000     -71.83830000
H      -46.93160000     -35.22900000     -72.42860000
C      -43.74800000     -31.43220000     -70.62000000
H      -43.71580000     -30.35860000     -70.84130000
H      -44.21580000     -31.63350000     -69.68920000
C      -44.41370000     -32.07240000     -71.89560000
H      -43.78590000     -31.78070000     -72.83140000
H      -44.44080000     -33.19970000     -71.97330000
C      -46.76490000     -34.19690000     -70.44710000
H      -45.94980000     -33.85560000     -69.83870000
H      -47.44500000     -34.78510000     -69.79910000
C      -47.57700000     -33.04620000     -70.98300000
C      -48.90550000     -32.96890000     -70.83950000
C      -47.07740000     -31.84830000     -71.64690000
H      -49.57980000     -33.67470000     -70.37040000
C      -48.15420000     -31.01950000     -72.03510000
C      -45.78640000     -31.41100000     -72.08300000
C      -45.91970000     -30.27250000     -72.86170000
S      -49.67700000     -31.53250000     -71.48610000
S      -47.53580000     -29.64640000     -72.99830000
H      -45.07960000     -29.76960000     -73.32810000
