40
Properties=species:S:1:pos:R:3 #=T CELL(abcABC):=T 1.889726e+02=T 90.00000=T Traj:=T positionsangstrom=T Step:=T 0=T Bead:=T pbc="F F F"
C      -41.17320000     -34.84510000     -71.28810000
C      -42.24810000     -34.61540000     -70.39120000
C      -43.32530000     -35.49240000     -70.30620000
C      -43.43530000     -36.49910000     -71.26010000
C      -42.32760000     -36.81970000     -72.09290000
C      -41.20780000     -35.93420000     -72.12970000
H      -40.41200000     -34.01950000     -71.29900000
H      -44.05650000     -35.46230000     -69.52850000
H      -42.40670000     -37.63650000     -72.78660000
H      -40.47400000     -36.27000000     -72.91560000
C      -44.62910000     -37.45020000     -71.30120000
H      -44.43800000     -38.34730000     -70.79430000
H      -44.91270000     -37.76700000     -72.31400000
C      -42.13580000     -33.37910000     -69.51310000
H      -43.03470000     -33.18160000     -68.93150000
H      -41.31660000     -33.35190000     -68.76130000
S      -46.20340000     -36.98600000     -70.51810000
S      -42.08590000     -31.74930000     -70.47330000
C      -46.63000000     -35.36910000     -71.31590000
H      -45.84490000     -35.18800000     -72.05380000
H      -47.55250000     -35.50690000     -71.94750000
C      -43.79360000     -31.31210000     -70.77810000
H      -43.95760000     -30.19200000     -71.00790000
H      -44.36300000     -31.45470000     -69.85870000
C      -44.42670000     -32.15470000     -71.87120000
H      -43.71180000     -32.06170000     -72.66460000
H      -44.44720000     -33.17570000     -71.70710000
C      -46.81740000     -34.20630000     -70.35320000
H      -45.87270000     -33.97310000     -69.85330000
H      -47.45530000     -34.58080000     -69.57500000
C      -47.56770000     -33.00610000     -70.81960000
C      -48.90560000     -32.91700000     -70.66500000
C      -47.10550000     -31.98670000     -71.69390000
H      -49.56090000     -33.56140000     -70.12440000
C      -48.11570000     -31.12320000     -72.08980000
C      -45.76110000     -31.56170000     -72.19390000
C      -45.86430000     -30.40260000     -72.98890000
S      -49.67340000     -31.53060000     -71.46160000
S      -47.55580000     -29.72590000     -72.98680000
H      -45.10050000     -29.82800000     -73.42940000
