40
Properties=species:S:1:pos:R:3 #=T CELL(abcABC):=T 1.889726e+02=T 90.00000=T Traj:=T positionsangstrom=T Step:=T 0=T Bead:=T pbc="F F F"
C      -41.25030000     -35.02050000     -71.23720000
C      -42.23030000     -34.85100000     -70.25350000
C      -43.38170000     -35.69470000     -70.14090000
C      -43.47020000     -36.74790000     -71.11330000
C      -42.49690000     -36.92900000     -72.11470000
C      -41.39030000     -36.01950000     -72.19930000
H      -40.44670000     -34.34810000     -71.18920000
H      -44.02720000     -35.69700000     -69.27300000
H      -42.67880000     -37.70720000     -72.89430000
H      -40.67890000     -36.06470000     -72.95830000
C      -44.63380000     -37.67500000     -70.98270000
H      -44.68560000     -38.29720000     -70.11350000
H      -44.65410000     -38.40450000     -71.81630000
C      -42.29390000     -33.65920000     -69.29610000
H      -43.20950000     -33.66940000     -68.71960000
H      -41.50750000     -33.78140000     -68.47100000
S      -46.30030000     -36.89630000     -70.88550000
S      -42.06360000     -32.00480000     -70.19550000
C      -46.27370000     -35.19760000     -71.61180000
H      -45.26670000     -35.03070000     -72.03650000
H      -46.96050000     -35.13500000     -72.48610000
C      -43.81330000     -31.40270000     -70.51430000
H      -43.81080000     -30.32770000     -70.46280000
H      -44.44890000     -31.71880000     -69.65970000
C      -44.39720000     -31.92870000     -71.92930000
H      -43.66740000     -31.65190000     -72.63710000
H      -44.55060000     -32.97930000     -71.82910000
C      -46.77920000     -34.16650000     -70.50820000
H      -45.89750000     -33.87590000     -69.90650000
H      -47.49670000     -34.62190000     -69.84860000
C      -47.55450000     -33.00010000     -71.12100000
C      -48.88370000     -32.93220000     -70.93250000
C      -47.03450000     -31.82270000     -71.77920000
H      -49.49500000     -33.64970000     -70.45800000
C      -48.06490000     -30.96140000     -72.14110000
C      -45.75840000     -31.30700000     -72.13430000
C      -45.86970000     -30.07340000     -72.68800000
S      -49.59960000     -31.43180000     -71.61860000
S      -47.53010000     -29.51320000     -72.92880000
H      -44.95430000     -29.48350000     -73.01550000
