40
Properties=species:S:1:pos:R:3 #=T CELL(abcABC):=T 1.889726e+02=T 90.00000=T Traj:=T positionsangstrom=T Step:=T 0=T Bead:=T pbc="F F F"
C      -41.67110000     -34.98320000     -71.24260000
C      -42.61470000     -34.90690000     -70.17190000
C      -43.65760000     -35.79350000     -70.03610000
C      -43.92060000     -36.73720000     -71.03810000
C      -43.02900000     -36.81720000     -72.12480000
C      -41.91870000     -35.95550000     -72.27700000
H      -40.72800000     -34.43330000     -71.32960000
H      -44.23200000     -35.81080000     -69.06280000
H      -43.13000000     -37.51360000     -72.94380000
H      -41.16940000     -36.11390000     -73.12110000
C      -45.07430000     -37.79170000     -71.01380000
H      -45.04800000     -38.40940000     -70.06560000
H      -44.97460000     -38.55880000     -71.79940000
C      -42.30570000     -33.88610000     -69.06990000
H      -43.06340000     -33.98700000     -68.27370000
H      -41.38730000     -34.25630000     -68.57040000
S      -46.76700000     -37.01660000     -71.10840000
S      -42.01570000     -32.14230000     -69.72040000
C      -46.64480000     -35.36660000     -71.89040000
H      -45.85780000     -35.37070000     -72.70120000
H      -47.50710000     -35.25630000     -72.50940000
C      -43.62470000     -31.40220000     -70.25680000
H      -43.36110000     -30.33510000     -70.13320000
H      -44.30920000     -31.63270000     -69.43640000
C      -44.14980000     -31.80810000     -71.57060000
H      -43.29800000     -31.65720000     -72.32270000
H      -44.40100000     -32.82160000     -71.57020000
C      -46.52470000     -34.20140000     -70.86380000
H      -45.50130000     -34.04930000     -70.64920000
H      -47.01530000     -34.52090000     -69.91540000
C      -47.26940000     -32.93120000     -71.30240000
C      -48.61690000     -32.91750000     -71.18040000
C      -46.70720000     -31.78210000     -71.98950000
H      -49.30120000     -33.71910000     -70.78630000
C      -47.68690000     -30.87250000     -72.29640000
C      -45.40800000     -31.10580000     -72.03830000
C      -45.44970000     -29.79740000     -72.51880000
S      -49.29850000     -31.46000000     -71.88820000
S      -47.13590000     -29.31620000     -72.84450000
H      -44.64220000     -29.13720000     -72.51610000
