40
Properties=species:S:1:pos:R:3 #=T CELL(abcABC):=T 1.889726e+02=T 90.00000=T Traj:=T positionsangstrom=T Step:=T 0=T Bead:=T pbc="F F F"
C      -46.65350000     -34.89050000     -75.06690000
C      -46.96530000     -33.63890000     -74.48700000
C      -47.67230000     -33.65660000     -73.29880000
C      -47.95360000     -34.84470000     -72.67680000
C      -47.50750000     -36.12090000     -73.18130000
C      -46.93240000     -36.09640000     -74.45130000
H      -46.22950000     -34.98660000     -76.04880000
H      -48.16070000     -32.75200000     -72.91740000
H      -47.98510000     -36.99130000     -72.74930000
H      -46.50960000     -36.99090000     -74.89320000
C      -48.93600000     -34.93860000     -71.51200000
H      -48.70700000     -35.87870000     -71.04250000
H      -49.97640000     -34.97770000     -71.85220000
C      -46.28400000     -32.32960000     -74.98610000
H      -46.37630000     -32.15680000     -76.10000000
H      -46.80750000     -31.58080000     -74.48540000
S      -48.84980000     -33.47440000     -70.33000000
S      -44.44640000     -32.19860000     -74.85490000
C      -47.29760000     -33.54720000     -69.39240000
H      -46.96770000     -32.53280000     -69.22440000
H      -47.47340000     -33.97280000     -68.41410000
C      -43.92550000     -32.78030000     -73.19760000
H      -42.87960000     -32.87780000     -73.29090000
H      -44.27930000     -33.80920000     -73.00810000
C      -44.33200000     -31.80430000     -72.03450000
H      -44.00760000     -30.81160000     -72.43610000
H      -45.43200000     -31.86400000     -71.88870000
C      -46.13860000     -34.22400000     -70.09190000
H      -46.09240000     -33.77190000     -71.05920000
H      -46.24650000     -35.37310000     -70.16430000
C      -44.84440000     -33.93960000     -69.35010000
C      -44.50400000     -34.61870000     -68.21790000
C      -43.89290000     -32.83230000     -69.67010000
H      -45.03500000     -35.51800000     -67.83000000
C      -42.90160000     -32.75790000     -68.66910000
C      -43.62440000     -31.90910000     -70.76100000
C      -42.43660000     -31.16190000     -70.55520000
S      -43.08670000     -34.01330000     -67.38960000
S      -41.63290000     -31.67930000     -69.06160000
H      -41.90410000     -30.55490000     -71.29730000
