40
Properties=species:S:1:pos:R:3 #=T CELL(abcABC):=T 1.889726e+02=T 90.00000=T Traj:=T positionsangstrom=T Step:=T 0=T Bead:=T pbc="F F F"
C      -41.94270000     -34.89000000     -71.41650000
C      -42.68770000     -34.86750000     -70.23090000
C      -43.86330000     -35.73910000     -70.14270000
C      -44.06780000     -36.74910000     -71.06600000
C      -43.30350000     -36.66190000     -72.26540000
C      -42.26540000     -35.79460000     -72.42590000
H      -41.21480000     -34.09620000     -71.45520000
H      -44.38250000     -35.69020000     -69.23200000
H      -43.48740000     -37.36680000     -73.04600000
H      -41.88050000     -35.73230000     -73.46970000
C      -45.13940000     -37.76080000     -70.80830000
H      -45.09390000     -38.08090000     -69.75710000
H      -45.08960000     -38.55090000     -71.51010000
C      -42.32390000     -34.01990000     -69.07240000
H      -43.15580000     -34.17040000     -68.28440000
H      -41.38520000     -34.40620000     -68.59770000
S      -46.79450000     -37.05870000     -71.00800000
S      -42.02890000     -32.25650000     -69.40280000
C      -46.63600000     -35.43670000     -71.83080000
H      -45.72510000     -35.22600000     -72.36640000
H      -47.52110000     -35.45830000     -72.45470000
C      -43.67600000     -31.58990000     -69.95210000
H      -43.51970000     -30.52900000     -69.76880000
H      -44.51940000     -31.95670000     -69.36640000
C      -44.05650000     -31.94790000     -71.47430000
H      -43.28110000     -31.56060000     -72.05780000
H      -44.21750000     -33.03220000     -71.76470000
C      -46.75940000     -34.24390000     -70.77640000
H      -45.72880000     -34.10830000     -70.23150000
H      -47.48330000     -34.52330000     -70.00620000
C      -47.27410000     -32.93890000     -71.42540000
C      -48.62370000     -32.94550000     -71.70150000
C      -46.60460000     -31.68250000     -71.74570000
H      -49.29500000     -33.75980000     -71.58390000
C      -47.54140000     -30.77980000     -72.22790000
C      -45.26810000     -31.18460000     -71.86110000
C      -45.20720000     -29.93870000     -72.47940000
S      -49.18980000     -31.33250000     -72.34330000
S      -46.76910000     -29.24250000     -72.79750000
H      -44.25430000     -29.39240000     -72.81870000
