40
Properties=species:S:1:pos:R:3 #=T CELL(abcABC):=T 1.889726e+02=T 90.00000=T Traj:=T positionsangstrom=T Step:=T 0=T Bead:=T pbc="F F F"
C      -41.97790000     -35.03300000     -71.38800000
C      -42.75470000     -35.22030000     -70.25800000
C      -43.97290000     -35.84780000     -70.38590000
C      -44.43300000     -36.34570000     -71.62570000
C      -43.57090000     -36.14690000     -72.72740000
C      -42.35330000     -35.51680000     -72.62110000
H      -41.04530000     -34.39260000     -71.24020000
H      -44.72880000     -35.90310000     -69.59070000
H      -43.90660000     -36.31300000     -73.79460000
H      -41.69540000     -35.37840000     -73.45710000
C      -45.77110000     -37.07970000     -71.67950000
H      -45.51110000     -38.12320000     -71.53010000
H      -46.24040000     -36.95460000     -72.65260000
C      -42.19800000     -34.64940000     -68.94510000
H      -42.69780000     -35.00220000     -68.07880000
H      -41.16970000     -34.91080000     -68.76400000
S      -47.08260000     -36.69950000     -70.39650000
S      -42.32000000     -32.86570000     -68.77330000
C      -47.92070000     -35.19160000     -71.07130000
H      -48.05160000     -35.33670000     -72.18130000
H      -48.98810000     -35.07980000     -70.63610000
C      -43.98640000     -32.25600000     -69.21710000
H      -44.01840000     -31.22570000     -68.83540000
H      -44.79300000     -32.85900000     -68.79220000
C      -44.09070000     -32.31150000     -70.80970000
H      -43.10630000     -32.04750000     -71.21970000
H      -44.26780000     -33.34640000     -71.20020000
C      -47.01900000     -33.93940000     -70.81900000
H      -45.99810000     -34.27390000     -71.10920000
H      -46.75550000     -33.78280000     -69.70730000
C      -47.39870000     -32.67150000     -71.47800000
C      -48.66790000     -32.39200000     -71.97410000
C      -46.40870000     -31.69860000     -71.92110000
H      -49.55190000     -32.94110000     -71.92300000
C      -46.89760000     -30.88620000     -72.90050000
C      -45.09490000     -31.42080000     -71.51240000
C      -44.66120000     -30.25550000     -72.14920000
S      -48.68320000     -30.89850000     -72.93530000
S      -45.81490000     -29.54290000     -73.26130000
H      -43.67540000     -29.73970000     -72.03330000
