40
Properties=species:S:1:pos:R:3 #=T CELL(abcABC):=T 1.889726e+02=T 90.00000=T Traj:=T positionsangstrom=T Step:=T 0=T Bead:=T pbc="F F F"
C      -41.93670000     -34.87640000     -71.41150000
C      -42.57800000     -35.12180000     -70.20440000
C      -43.72410000     -35.88620000     -70.27160000
C      -44.18690000     -36.45700000     -71.44230000
C      -43.52170000     -36.19820000     -72.64660000
C      -42.34390000     -35.37290000     -72.64260000
H      -40.99270000     -34.41320000     -71.35410000
H      -44.31600000     -35.97260000     -69.40620000
H      -43.77130000     -36.75170000     -73.52910000
H      -41.82980000     -35.21680000     -73.56500000
C      -45.38330000     -37.35910000     -71.47160000
H      -45.22200000     -38.31740000     -71.03330000
H      -45.63090000     -37.54120000     -72.46630000
C      -42.28200000     -34.50750000     -68.89560000
H      -42.80370000     -35.09940000     -68.09200000
H      -41.19240000     -34.52420000     -68.71110000
S      -46.88410000     -36.75730000     -70.58310000
S      -42.48990000     -32.71750000     -68.95270000
C      -47.46180000     -35.23690000     -71.35120000
H      -47.10360000     -35.20260000     -72.45920000
H      -48.59610000     -35.17940000     -71.48950000
C      -44.08490000     -32.14530000     -69.62510000
H      -43.98000000     -31.06800000     -69.45430000
H      -44.89600000     -32.50710000     -69.01890000
C      -44.05310000     -32.41150000     -71.13060000
H      -43.02200000     -32.24500000     -71.55010000
H      -44.39240000     -33.45930000     -71.25800000
C      -47.08430000     -33.96740000     -70.49690000
H      -46.06870000     -34.01060000     -70.12720000
H      -47.75840000     -33.94930000     -69.68280000
C      -47.36050000     -32.73760000     -71.42070000
C      -48.66000000     -32.52090000     -71.77740000
C      -46.45910000     -31.73750000     -71.86670000
H      -49.49670000     -33.20160000     -71.63990000
C      -47.14480000     -30.72660000     -72.53730000
C      -45.06570000     -31.46870000     -71.84120000
C      -44.77730000     -30.17560000     -72.28730000
S      -48.81680000     -31.13080000     -72.83900000
S      -46.15130000     -29.36020000     -73.03580000
H      -43.82800000     -29.72360000     -72.43790000
