40
Properties=species:S:1:pos:R:3 #=T CELL(abcABC):=T 1.889726e+02=T 90.00000=T Traj:=T positionsangstrom=T Step:=T 0=T Bead:=T pbc="F F F"
C      -41.81700000     -30.78350000     -71.41890000
C      -42.83200000     -30.69570000     -70.40980000
C      -43.08190000     -31.79950000     -69.62780000
C      -42.37550000     -32.99920000     -69.74050000
C      -41.39770000     -33.03180000     -70.69450000
C      -41.09250000     -31.93570000     -71.50010000
H      -41.64430000     -29.91980000     -72.06660000
H      -43.87250000     -31.67600000     -68.84890000
H      -40.79810000     -33.94980000     -70.87690000
H      -40.42680000     -32.01550000     -72.34030000
C      -42.60520000     -34.23190000     -68.80530000
H      -43.53400000     -34.02610000     -68.34670000
H      -41.83550000     -34.40320000     -68.11510000
C      -43.76470000     -29.45870000     -70.28430000
H      -44.22060000     -29.48860000     -69.37080000
H      -43.24630000     -28.51910000     -70.43910000
S      -42.71520000     -35.93700000     -69.65270000
S      -45.10490000     -29.42390000     -71.63180000
C      -44.01890000     -35.66710000     -70.96000000
H      -43.64730000     -34.92140000     -71.67390000
H      -44.18220000     -36.66140000     -71.44850000
C      -46.29520000     -30.85850000     -71.40570000
H      -47.23140000     -30.56350000     -71.85520000
H      -46.35990000     -31.20600000     -70.30940000
C      -45.81550000     -32.16070000     -72.15680000
H      -45.46090000     -31.85690000     -73.10960000
H      -44.98760000     -32.65770000     -71.62620000
C      -45.31180000     -35.12570000     -70.27200000
H      -45.11210000     -34.07440000     -70.21880000
H      -45.35210000     -35.57930000     -69.25570000
C      -46.71670000     -35.22470000     -70.92040000
C      -47.40150000     -36.44030000     -70.78480000
C      -47.31130000     -34.35730000     -71.89790000
H      -47.18860000     -37.18340000     -69.96110000
C      -48.43470000     -34.91190000     -72.49420000
C      -46.93460000     -33.05770000     -72.54040000
C      -47.83450000     -32.80760000     -73.58110000
S      -48.82120000     -36.45720000     -71.78670000
S      -49.09800000     -34.02480000     -73.87260000
H      -47.90260000     -31.89940000     -74.22970000
