40
Properties=species:S:1:pos:R:3 #=T CELL(abcABC):=T 1.889726e+02=T 90.00000=T Traj:=T positionsangstrom=T Step:=T 0=T Bead:=T pbc="F F F"
C      -42.12210000     -30.89770000     -71.45860000
C      -43.05590000     -30.84110000     -70.43100000
C      -43.20260000     -32.03370000     -69.69220000
C      -42.35050000     -33.11120000     -69.76080000
C      -41.31250000     -33.04770000     -70.71680000
C      -41.20010000     -31.98130000     -71.61350000
H      -41.97370000     -30.01910000     -72.03990000
H      -43.97930000     -32.02930000     -68.91350000
H      -40.58990000     -33.81260000     -70.79940000
H      -40.44150000     -31.95340000     -72.37740000
C      -42.46630000     -34.24430000     -68.81300000
H      -43.35770000     -34.16030000     -68.06520000
H      -41.47200000     -34.34500000     -68.22880000
C      -43.93770000     -29.69920000     -70.20900000
H      -44.69550000     -29.85820000     -69.34410000
H      -43.34140000     -28.77130000     -69.98380000
S      -42.61360000     -35.82140000     -69.75970000
S      -45.04350000     -29.40000000     -71.67470000
C      -44.19520000     -35.59280000     -70.77650000
H      -43.99150000     -35.07370000     -71.70970000
H      -44.49800000     -36.56960000     -71.13890000
C      -46.31530000     -30.72640000     -71.62940000
H      -47.16660000     -30.32890000     -72.19590000
H      -46.63300000     -30.74690000     -70.60780000
C      -45.79750000     -32.11590000     -72.06480000
H      -44.98080000     -32.03860000     -72.83660000
H      -45.24800000     -32.50390000     -71.19410000
C      -45.42470000     -35.13620000     -70.07010000
H      -45.40210000     -34.02470000     -69.90480000
H      -45.57580000     -35.65270000     -69.09760000
C      -46.66270000     -35.34490000     -70.97300000
C      -47.28750000     -36.55930000     -70.92830000
C      -47.19120000     -34.41240000     -71.89530000
H      -47.03330000     -37.48210000     -70.35820000
C      -48.37400000     -34.85920000     -72.48230000
C      -46.83010000     -33.08330000     -72.49110000
C      -47.79770000     -32.67450000     -73.37390000
S      -48.76950000     -36.48050000     -71.89990000
S      -49.09920000     -33.81870000     -73.69050000
H      -47.66170000     -31.79250000     -74.08800000
