40
Properties=species:S:1:pos:R:3 #=T CELL(abcABC):=T 1.889726e+02=T 90.00000=T Traj:=T positionsangstrom=T Step:=T 0=T Bead:=T pbc="F F F"
C      -42.02250000     -30.56680000     -71.22600000
C      -43.10520000     -30.85250000     -70.33500000
C      -43.02070000     -32.10870000     -69.64380000
C      -41.99280000     -33.04230000     -69.75700000
C      -40.90950000     -32.68300000     -70.58830000
C      -40.93840000     -31.47400000     -71.27090000
H      -41.94520000     -29.63670000     -71.80880000
H      -43.80130000     -32.25330000     -68.86070000
H      -39.97190000     -33.26570000     -70.64310000
H      -40.08530000     -31.19900000     -71.90230000
C      -42.03860000     -34.35910000     -69.00620000
H      -42.42320000     -34.19040000     -67.99340000
H      -41.03480000     -34.68660000     -68.81600000
C      -44.21280000     -29.94270000     -70.09430000
H      -44.90130000     -30.26330000     -69.29760000
H      -43.87160000     -28.89310000     -69.75240000
S      -42.87140000     -35.83290000     -69.88670000
S      -45.25980000     -29.61750000     -71.59620000
C      -44.32860000     -35.11850000     -70.79000000
H      -43.98310000     -34.34300000     -71.45110000
H      -44.56990000     -35.88470000     -71.53590000
C      -46.48100000     -31.06720000     -71.73400000
H      -47.30940000     -30.63320000     -72.23370000
H      -46.80460000     -31.40650000     -70.71510000
C      -45.82300000     -32.15560000     -72.52710000
H      -45.42790000     -31.81490000     -73.49470000
H      -45.02270000     -32.60740000     -71.98890000
C      -45.50840000     -34.65880000     -69.96040000
H      -45.30530000     -33.56340000     -69.76690000
H      -45.57960000     -35.22080000     -69.00950000
C      -46.76490000     -34.91310000     -70.74730000
C      -47.64750000     -35.85580000     -70.28470000
C      -47.07860000     -34.42250000     -72.09130000
H      -47.67220000     -36.29440000     -69.28080000
C      -48.30490000     -35.04380000     -72.47770000
C      -46.80810000     -33.22710000     -72.91680000
C      -47.62440000     -33.17390000     -73.99150000
S      -48.92060000     -36.27880000     -71.43980000
S      -48.83390000     -34.51240000     -74.06790000
H      -47.76940000     -32.27530000     -74.67380000
