40
Properties=species:S:1:pos:R:3 #=T CELL(abcABC):=T 1.889726e+02=T 90.00000=T Traj:=T positionsangstrom=T Step:=T 0=T Bead:=T pbc="F F F"
C      -42.30860000     -30.99910000     -71.43360000
C      -43.15200000     -30.99680000     -70.37350000
C      -43.09070000     -32.14220000     -69.54700000
C      -42.23640000     -33.21540000     -69.79430000
C      -41.30460000     -33.12750000     -70.80200000
C      -41.34240000     -32.02440000     -71.63930000
H      -42.42600000     -30.15550000     -72.12110000
H      -43.72880000     -32.22580000     -68.68340000
H      -40.65400000     -33.92320000     -70.92820000
H      -40.65000000     -31.94310000     -72.45540000
C      -42.32690000     -34.41790000     -68.88400000
H      -42.85970000     -34.29920000     -67.99020000
H      -41.34910000     -34.54040000     -68.51980000
C      -44.11240000     -29.80010000     -70.20820000
H      -44.76850000     -29.85900000     -69.37240000
H      -43.51350000     -28.97670000     -70.03250000
S      -42.66980000     -35.97960000     -69.79480000
S      -45.05230000     -29.27970000     -71.77090000
C      -44.08490000     -35.37850000     -70.84050000
H      -43.82010000     -34.41560000     -71.31230000
H      -44.09080000     -36.22800000     -71.55360000
C      -46.27690000     -30.71120000     -71.69010000
H      -47.09470000     -30.37970000     -72.39360000
H      -46.77310000     -30.69560000     -70.72510000
C      -45.70640000     -32.12560000     -71.95810000
H      -44.95110000     -31.94220000     -72.74200000
H      -45.25700000     -32.52050000     -71.04730000
C      -45.38340000     -35.13350000     -70.01740000
H      -45.37330000     -34.08960000     -69.60910000
H      -45.30850000     -35.71670000     -69.16390000
C      -46.66060000     -35.31790000     -70.89270000
C      -47.40160000     -36.43920000     -70.88450000
C      -47.17580000     -34.35770000     -71.90950000
H      -47.15790000     -37.33490000     -70.38030000
C      -48.33610000     -34.82330000     -72.53310000
C      -46.84760000     -32.98570000     -72.37320000
C      -47.90180000     -32.51140000     -73.13780000
S      -48.61740000     -36.53830000     -72.15720000
S      -49.15010000     -33.68230000     -73.48320000
H      -47.92140000     -31.46930000     -73.57520000
