40
Properties=species:S:1:pos:R:3 #=T CELL(abcABC):=T 1.889726e+02=T 90.00000=T Traj:=T positionsangstrom=T Step:=T 0=T Bead:=T pbc="F F F"
C      -42.03040000     -30.97190000     -71.28250000
C      -43.00580000     -31.15270000     -70.34080000
C      -43.08350000     -32.35090000     -69.64540000
C      -42.11960000     -33.34150000     -69.82230000
C      -41.09330000     -33.13840000     -70.80060000
C      -41.09840000     -31.95940000     -71.53700000
H      -42.06680000     -30.08840000     -71.82740000
H      -43.84930000     -32.52450000     -68.84720000
H      -40.36260000     -33.91850000     -70.95240000
H      -40.30640000     -31.62930000     -72.24500000
C      -42.20300000     -34.68760000     -69.11200000
H      -42.78210000     -34.59250000     -68.18930000
H      -41.15650000     -34.90170000     -68.66740000
C      -44.07750000     -30.14800000     -70.01500000
H      -44.81330000     -30.52750000     -69.25920000
H      -43.63050000     -29.29380000     -69.48220000
S      -42.57560000     -36.11920000     -70.20650000
S      -44.91840000     -29.30330000     -71.41700000
C      -44.11470000     -35.60780000     -71.25090000
H      -43.76880000     -34.90640000     -71.99850000
H      -44.38790000     -36.59580000     -71.65750000
C      -46.38100000     -30.49150000     -71.62340000
H      -46.88270000     -30.09690000     -72.49920000
H      -47.01460000     -30.39750000     -70.75750000
C      -45.97700000     -31.94530000     -71.83650000
H      -45.25840000     -32.03500000     -72.63570000
H      -45.60580000     -32.40090000     -70.96910000
C      -45.26450000     -34.99540000     -70.37360000
H      -44.89630000     -34.02130000     -69.97140000
H      -45.21700000     -35.72460000     -69.52500000
C      -46.64280000     -35.12790000     -71.02220000
C      -47.28780000     -36.34170000     -71.01970000
C      -47.29320000     -34.17940000     -71.92870000
H      -47.08930000     -37.37240000     -70.62080000
C      -48.40430000     -34.78360000     -72.49290000
C      -47.14480000     -32.78590000     -72.17780000
C      -48.21860000     -32.36570000     -72.93000000
S      -48.70930000     -36.42790000     -72.03660000
S      -49.37280000     -33.62620000     -73.41260000
H      -48.35080000     -31.37590000     -73.26280000
