40
Properties=species:S:1:pos:R:3 #=T CELL(abcABC):=T 1.889726e+02=T 90.00000=T Traj:=T positionsangstrom=T Step:=T 0=T Bead:=T pbc="F F F"
C      -42.07050000     -30.76430000     -71.31810000
C      -43.00370000     -30.78240000     -70.31740000
C      -43.01610000     -31.88680000     -69.43460000
C      -42.12120000     -32.96570000     -69.51830000
C      -41.16660000     -32.86260000     -70.52990000
C      -41.14580000     -31.82810000     -71.39090000
H      -42.05360000     -30.00490000     -72.08780000
H      -43.58890000     -31.75450000     -68.55770000
H      -40.48550000     -33.67030000     -70.74610000
H      -40.34430000     -31.75550000     -72.16020000
C      -42.40390000     -34.23850000     -68.74760000
H      -43.21300000     -34.06040000     -68.02600000
H      -41.57030000     -34.55080000     -68.14440000
C      -43.95950000     -29.62180000     -70.24480000
H      -44.38400000     -29.51710000     -69.22810000
H      -43.47510000     -28.69290000     -70.44170000
S      -42.85650000     -35.76440000     -69.85240000
S      -45.22170000     -29.73790000     -71.56350000
C      -44.20830000     -35.17100000     -70.90070000
H      -43.80140000     -34.44650000     -71.62770000
H      -44.61600000     -35.95620000     -71.52040000
C      -46.03880000     -31.39390000     -71.33700000
H      -47.16340000     -31.31670000     -71.22560000
H      -45.50300000     -31.70310000     -70.46660000
C      -45.73720000     -32.23730000     -72.54950000
H      -45.58180000     -31.63210000     -73.43620000
H      -44.78280000     -32.73390000     -72.40850000
C      -45.45760000     -34.65850000     -70.07350000
H      -45.21150000     -33.62040000     -69.71260000
H      -45.58600000     -35.23620000     -69.12300000
C      -46.73460000     -34.92600000     -70.81570000
C      -47.50840000     -36.06670000     -70.49810000
C      -47.29510000     -34.26030000     -71.99770000
H      -47.14280000     -36.81180000     -69.81780000
C      -48.37480000     -34.95290000     -72.57830000
C      -46.84290000     -33.23260000     -72.87090000
C      -47.64370000     -33.07250000     -73.96520000
S      -48.78270000     -36.45080000     -71.71150000
S      -49.02740000     -34.14560000     -73.98620000
H      -47.48480000     -32.46080000     -74.80030000
