40
Properties=species:S:1:pos:R:3 #=T CELL(abcABC):=T 1.889726e+02=T 90.00000=T Traj:=T positionsangstrom=T Step:=T 0=T Bead:=T pbc="F F F"
C      -42.11450000     -30.44830000     -71.16390000
C      -43.18680000     -30.74350000     -70.27210000
C      -43.20480000     -31.97880000     -69.66850000
C      -42.14720000     -32.90190000     -69.86120000
C      -41.06270000     -32.53790000     -70.67720000
C      -41.04440000     -31.31700000     -71.32640000
H      -42.00170000     -29.47350000     -71.66810000
H      -44.07920000     -32.18200000     -69.11750000
H      -40.22040000     -33.18160000     -70.81940000
H      -40.18700000     -31.00590000     -71.90500000
C      -42.27070000     -34.14270000     -69.03830000
H      -43.12840000     -34.09070000     -68.35300000
H      -41.30640000     -34.44020000     -68.61720000
C      -44.35090000     -29.81240000     -70.15610000
H      -45.16450000     -30.15850000     -69.43750000
H      -44.07720000     -28.76120000     -69.82480000
S      -42.68740000     -35.71090000     -70.00940000
S      -45.09230000     -29.66190000     -71.87840000
C      -44.26690000     -35.21930000     -70.89870000
H      -44.17050000     -34.24230000     -71.45370000
H      -44.41540000     -36.04400000     -71.67270000
C      -46.35720000     -31.08270000     -72.14120000
H      -46.91570000     -30.79940000     -73.09570000
H      -47.10320000     -31.10320000     -71.38760000
C      -45.62200000     -32.42130000     -72.45810000
H      -44.95430000     -32.32930000     -73.27970000
H      -45.14330000     -32.79170000     -71.54710000
C      -45.45710000     -35.04900000     -69.87570000
H      -45.30300000     -34.12220000     -69.41850000
H      -45.45510000     -35.83200000     -69.10170000
C      -46.76750000     -35.12840000     -70.57830000
C      -47.65090000     -36.11270000     -70.19780000
C      -47.17670000     -34.45260000     -71.81480000
H      -47.53450000     -36.69060000     -69.30450000
C      -48.32090000     -35.00060000     -72.35010000
C      -46.69140000     -33.44820000     -72.81510000
C      -47.49060000     -33.27090000     -73.91430000
S      -49.05850000     -36.18010000     -71.23730000
S      -48.80220000     -34.49470000     -73.90590000
H      -47.29990000     -32.55550000     -74.73020000
