40
Properties=species:S:1:pos:R:3 #=T CELL(abcABC):=T 1.889726e+02=T 90.00000=T Traj:=T positionsangstrom=T Step:=T 0=T Bead:=T pbc="F F F"
C      -42.82830000     -35.96860000     -71.26480000
C      -43.58330000     -35.76640000     -70.06770000
C      -44.82990000     -36.32700000     -69.92690000
C      -45.35040000     -37.11380000     -71.00360000
C      -44.62550000     -37.23000000     -72.24040000
C      -43.32510000     -36.74990000     -72.36050000
H      -41.80450000     -35.64810000     -71.28910000
H      -45.45430000     -36.20340000     -69.07140000
H      -45.10120000     -37.90240000     -73.03910000
H      -42.76760000     -36.96460000     -73.24100000
C      -46.76910000     -37.55190000     -70.93170000
H      -47.03580000     -37.98040000     -69.96940000
H      -47.04490000     -38.30660000     -71.74090000
C      -43.04150000     -35.00120000     -68.81490000
H      -43.87320000     -34.86240000     -68.09650000
H      -42.32910000     -35.69030000     -68.38270000
S      -47.97190000     -36.16660000     -71.08960000
S      -42.02990000     -33.51840000     -69.27320000
C      -47.09850000     -34.75470000     -71.85860000
H      -46.14820000     -35.01980000     -72.36170000
H      -47.81330000     -34.41600000     -72.65150000
C      -43.30340000     -32.36530000     -69.99390000
H      -42.84130000     -31.37440000     -69.84590000
H      -44.20610000     -32.33740000     -69.42350000
C      -43.64660000     -32.60130000     -71.42620000
H      -42.72800000     -32.62640000     -72.06950000
H      -44.17520000     -33.59000000     -71.52990000
C      -46.72020000     -33.61720000     -70.86560000
H      -45.79980000     -33.79440000     -70.35340000
H      -47.50610000     -33.66770000     -70.02310000
C      -46.90080000     -32.21280000     -71.51800000
C      -48.20770000     -31.69460000     -71.78350000
C      -45.84980000     -31.29680000     -71.95290000
H      -49.19470000     -32.06800000     -71.56990000
C      -46.37400000     -30.06090000     -72.41330000
C      -44.42700000     -31.38360000     -71.94700000
C      -43.93670000     -30.16420000     -72.38920000
S      -48.09330000     -30.10710000     -72.47370000
S      -45.11270000     -28.94230000     -72.78970000
H      -42.87660000     -29.91480000     -72.45430000
