40
Properties=species:S:1:pos:R:3 #=T CELL(abcABC):=T 1.889726e+02=T 90.00000=T Traj:=T positionsangstrom=T Step:=T 0=T Bead:=T pbc="F F F"
C      -42.73090000     -36.22960000     -71.25350000
C      -43.49850000     -35.93810000     -70.14200000
C      -44.85130000     -36.34640000     -70.05960000
C      -45.45010000     -36.95890000     -71.18320000
C      -44.67310000     -37.23920000     -72.31730000
C      -43.25890000     -36.89230000     -72.34430000
H      -41.67260000     -36.02470000     -71.21970000
H      -45.47950000     -36.06390000     -69.20020000
H      -45.05440000     -37.70160000     -73.18060000
H      -42.63040000     -37.16930000     -73.28820000
C      -46.86270000     -37.37010000     -71.18110000
H      -47.11390000     -38.03280000     -70.30750000
H      -47.06010000     -37.93890000     -72.12800000
C      -42.78340000     -35.28510000     -68.95570000
H      -43.43360000     -35.13080000     -68.11750000
H      -41.89400000     -35.83050000     -68.56710000
S      -48.15550000     -36.03890000     -71.07190000
S      -41.88760000     -33.69730000     -69.32760000
C      -47.49200000     -34.52650000     -71.91300000
H      -46.76440000     -34.83610000     -72.72770000
H      -48.39290000     -34.06200000     -72.36570000
C      -43.18400000     -32.47840000     -69.83570000
H      -42.82560000     -31.48010000     -69.67140000
H      -44.03380000     -32.71530000     -69.18650000
C      -43.61030000     -32.52270000     -71.34500000
H      -42.67080000     -32.55590000     -71.95900000
H      -44.24360000     -33.38750000     -71.61580000
C      -46.89390000     -33.61030000     -70.81010000
H      -45.85700000     -33.91220000     -70.46480000
H      -47.54400000     -33.68080000     -69.91860000
C      -46.91550000     -32.10360000     -71.27180000
C      -48.14810000     -31.47730000     -71.51840000
C      -45.86680000     -31.21250000     -71.72330000
H      -49.06990000     -31.96310000     -71.38420000
C      -46.32930000     -30.05250000     -72.27660000
C      -44.41290000     -31.34740000     -71.80570000
C      -43.89240000     -30.30730000     -72.48730000
S      -48.08230000     -29.91010000     -72.27570000
S      -45.07310000     -29.06210000     -73.04800000
H      -42.82500000     -30.25450000     -72.72070000
