40
Properties=species:S:1:pos:R:3 #=T CELL(abcABC):=T 1.889726e+02=T 90.00000=T Traj:=T positionsangstrom=T Step:=T 0=T Bead:=T pbc="F F F"
C      -42.66860000     -36.40470000     -71.19830000
C      -43.49530000     -35.97880000     -70.16450000
C      -44.86860000     -36.08690000     -70.24940000
C      -45.41970000     -36.79070000     -71.35190000
C      -44.59490000     -37.13780000     -72.43090000
C      -43.19780000     -36.88620000     -72.37310000
H      -41.53340000     -36.35720000     -71.22810000
H      -45.47610000     -35.73480000     -69.40470000
H      -45.09850000     -37.65720000     -73.28980000
H      -42.56470000     -37.04200000     -73.28250000
C      -46.87250000     -37.26650000     -71.26630000
H      -46.93260000     -37.94390000     -70.42020000
H      -47.15110000     -37.86700000     -72.12190000
C      -42.90930000     -35.21980000     -68.95620000
H      -43.75980000     -34.90080000     -68.26940000
H      -42.28190000     -35.89510000     -68.41920000
S      -48.17920000     -35.98670000     -70.97400000
S      -41.89280000     -33.68610000     -69.42070000
C      -47.48320000     -34.47230000     -71.71220000
H      -46.61080000     -34.73750000     -72.31180000
H      -48.26480000     -33.98300000     -72.26430000
C      -43.20650000     -32.52960000     -70.00380000
H      -42.86220000     -31.49860000     -69.91640000
H      -43.91920000     -32.60000000     -69.20360000
C      -43.63730000     -32.82730000     -71.55010000
H      -42.65070000     -32.93050000     -72.08070000
H      -44.22940000     -33.73080000     -71.67030000
C      -47.00890000     -33.49810000     -70.60320000
H      -45.99390000     -33.82450000     -70.25210000
H      -47.62350000     -33.71850000     -69.73760000
C      -47.03140000     -32.09730000     -71.20330000
C      -48.21080000     -31.37320000     -71.36730000
C      -45.94750000     -31.37700000     -71.87990000
H      -49.14900000     -31.70100000     -70.92700000
C      -46.31060000     -30.11490000     -72.35400000
C      -44.47740000     -31.63150000     -71.99020000
C      -43.93300000     -30.51190000     -72.56060000
S      -48.01550000     -29.72220000     -72.13120000
S      -44.94110000     -29.20510000     -72.91460000
H      -42.87000000     -30.41640000     -72.78830000
