40
Properties=species:S:1:pos:R:3 #=T CELL(abcABC):=T 1.889726e+02=T 90.00000=T Traj:=T positionsangstrom=T Step:=T 0=T Bead:=T pbc="F F F"
C      -47.25530000     -30.46010000     -73.68770000
C      -45.88220000     -30.63390000     -73.56930000
C      -45.18850000     -30.37580000     -72.38300000
C      -45.85380000     -30.15190000     -71.17100000
C      -47.26110000     -30.00390000     -71.28310000
C      -47.92810000     -30.09660000     -72.49530000
H      -47.75610000     -30.69780000     -74.57640000
H      -44.08330000     -30.42140000     -72.37610000
H      -47.85690000     -29.85380000     -70.33980000
H      -48.98520000     -29.99430000     -72.59970000
C      -45.10090000     -30.07800000     -69.83180000
H      -45.02530000     -29.07750000     -69.42930000
H      -44.05150000     -30.41650000     -70.01570000
C      -45.05410000     -30.95620000     -74.80070000
H      -45.62760000     -30.75680000     -75.68770000
H      -44.15700000     -30.34970000     -74.69680000
S      -46.01590000     -31.02430000     -68.47650000
S      -44.46200000     -32.71760000     -74.76630000
C      -45.48750000     -32.76980000     -68.62900000
H      -44.44640000     -32.73010000     -69.07320000
H      -45.35180000     -33.07030000     -67.59500000
C      -45.77550000     -33.83870000     -74.05810000
H      -45.55470000     -34.76880000     -74.49280000
H      -46.76280000     -33.51000000     -74.49230000
C      -45.69430000     -33.87810000     -72.53760000
H      -45.43070000     -32.89540000     -72.07070000
H      -46.68100000     -34.13970000     -72.16830000
C      -46.54530000     -33.63880000     -69.28550000
H      -46.77170000     -33.19930000     -70.18910000
H      -47.46930000     -33.76380000     -68.71050000
C      -45.78490000     -34.95450000     -69.45080000
C      -45.66820000     -35.87850000     -68.43500000
C      -44.97710000     -35.41340000     -70.54670000
H      -46.25340000     -35.75560000     -67.52630000
C      -44.12450000     -36.49240000     -70.24850000
C      -44.85080000     -35.05730000     -71.89300000
C      -43.96520000     -35.77690000     -72.64110000
S      -44.60930000     -37.28000000     -68.79040000
S      -43.24180000     -37.02260000     -71.62870000
H      -43.66450000     -35.85460000     -73.65260000
