40
Properties=species:S:1:pos:R:3 #=T CELL(abcABC):=T 1.889726e+02=T 90.00000=T Traj:=T positionsangstrom=T Step:=T 0=T Bead:=T pbc="F F F"
C      -42.47950000     -31.28650000     -73.17430000
C      -42.98050000     -31.14270000     -71.87860000
C      -42.72510000     -32.15260000     -70.92520000
C      -42.10080000     -33.33050000     -71.33430000
C      -41.69290000     -33.53120000     -72.64330000
C      -41.81390000     -32.47490000     -73.57710000
H      -42.70570000     -30.50740000     -73.85920000
H      -43.10300000     -32.06380000     -69.87850000
H      -41.28280000     -34.45860000     -73.03460000
H      -41.21190000     -32.54560000     -74.50950000
C      -41.82950000     -34.43550000     -70.32680000
H      -40.71820000     -34.48130000     -70.07630000
H      -41.98120000     -35.50350000     -70.73320000
C      -43.69730000     -29.88060000     -71.42830000
H      -43.83600000     -29.94580000     -70.40700000
H      -43.03520000     -29.03250000     -71.48050000
S      -42.61640000     -34.35330000     -68.67010000
S      -45.26850000     -29.54310000     -72.32170000
C      -44.16360000     -35.23520000     -68.92340000
H      -43.98550000     -36.11600000     -69.52840000
H      -44.55230000     -35.33230000     -67.84990000
C      -46.30110000     -30.98490000     -71.79460000
H      -47.19040000     -30.62610000     -72.15170000
H      -46.21620000     -31.04020000     -70.63780000
C      -46.05180000     -32.28740000     -72.48530000
H      -45.86980000     -32.09100000     -73.53410000
H      -45.13760000     -32.73880000     -72.14060000
C      -45.09740000     -34.22280000     -69.64640000
H      -44.54600000     -33.85930000     -70.55720000
H      -45.24910000     -33.33950000     -69.08590000
C      -46.42340000     -34.79420000     -70.11420000
C      -46.94680000     -35.96460000     -69.64090000
C      -47.20400000     -34.34680000     -71.29450000
H      -46.50410000     -36.58910000     -68.84970000
C      -48.34180000     -35.14620000     -71.51710000
C      -47.14850000     -33.30760000     -72.26300000
C      -48.22590000     -33.26020000     -73.10160000
S      -48.45920000     -36.47450000     -70.42130000
S      -49.37970000     -34.56070000     -72.81030000
H      -48.18840000     -32.66890000     -73.98490000
