40
Properties=species:S:1:pos:R:3 #=T CELL(abcABC):=T 1.889726e+02=T 90.00000=T Traj:=T positionsangstrom=T Step:=T 0=T Bead:=T pbc="F F F"
C      -46.88600000     -30.66040000     -70.42260000
C      -47.85570000     -31.47910000     -71.04960000
C      -48.19230000     -32.63970000     -70.32680000
C      -47.75040000     -32.91010000     -69.04960000
C      -46.71340000     -32.12310000     -68.53660000
C      -46.28860000     -31.01420000     -69.25580000
H      -46.60520000     -29.67300000     -70.86020000
H      -48.75460000     -33.41740000     -70.88200000
H      -46.23140000     -32.37330000     -67.62470000
H      -45.39270000     -30.45720000     -68.87800000
C      -48.20270000     -34.17530000     -68.36910000
H      -48.96520000     -34.59810000     -69.01650000
H      -48.71810000     -33.93980000     -67.46890000
C      -48.61900000     -31.11810000     -72.28920000
H      -49.29960000     -31.94170000     -72.62880000
H      -49.37420000     -30.25610000     -72.19310000
S      -46.94290000     -35.45500000     -67.96290000
S      -47.56490000     -30.78460000     -73.78730000
C      -45.36850000     -34.92270000     -68.91780000
H      -44.96800000     -34.00370000     -68.44070000
H      -44.72000000     -35.75970000     -68.73450000
C      -45.76530000     -31.11620000     -73.40570000
H      -45.45640000     -30.44760000     -72.57740000
H      -45.21470000     -30.88000000     -74.33120000
C      -45.52990000     -32.60690000     -73.00520000
H      -45.89870000     -32.82390000     -71.93330000
H      -46.18220000     -33.31590000     -73.57920000
C      -45.48750000     -34.80590000     -70.44580000
H      -45.93670000     -33.91050000     -70.66390000
H      -46.16310000     -35.59280000     -70.81170000
C      -44.08640000     -35.00850000     -71.03160000
C      -43.19180000     -36.01610000     -70.79400000
C      -43.63070000     -34.17320000     -72.09730000
H      -43.37070000     -36.79870000     -70.11600000
C      -42.29780000     -34.49970000     -72.45000000
C      -44.11500000     -33.16340000     -72.98590000
C      -43.18990000     -32.82540000     -74.00490000
S      -41.65120000     -35.95800000     -71.69630000
S      -41.60820000     -33.70480000     -73.85060000
H      -43.33120000     -31.97360000     -74.70580000
