40
Properties=species:S:1:pos:R:3 #=T CELL(abcABC):=T 1.889726e+02=T 90.00000=T Traj:=T positionsangstrom=T Step:=T 0=T Bead:=T pbc="F F F"
C      -42.19510000     -31.34880000     -73.00350000
C      -42.83630000     -31.12750000     -71.73440000
C      -42.76270000     -32.15610000     -70.79240000
C      -42.18670000     -33.38640000     -71.12610000
C      -41.66680000     -33.60520000     -72.38450000
C      -41.61780000     -32.57110000     -73.32210000
H      -42.11470000     -30.58920000     -73.73660000
H      -43.18500000     -31.94680000     -69.76650000
H      -41.19040000     -34.56520000     -72.53800000
H      -40.99490000     -32.57600000     -74.14090000
C      -42.07750000     -34.47890000     -70.07960000
H      -41.05090000     -34.72660000     -69.90970000
H      -42.48710000     -35.43060000     -70.32790000
C      -43.49400000     -29.83790000     -71.46900000
H      -43.62970000     -29.69340000     -70.40190000
H      -42.96320000     -28.92470000     -71.77080000
S      -42.85620000     -34.08730000     -68.43780000
S      -45.11410000     -29.66080000     -72.32230000
C      -44.48110000     -34.88390000     -68.76560000
H      -44.30530000     -35.89930000     -69.09890000
H      -45.02680000     -34.82850000     -67.85610000
C      -46.00970000     -31.05430000     -71.67300000
H      -47.07110000     -30.64850000     -71.49190000
H      -45.51660000     -31.30970000     -70.79130000
C      -45.95420000     -32.30960000     -72.63330000
H      -46.01320000     -31.88990000     -73.57690000
H      -45.00780000     -32.76160000     -72.59410000
C      -45.31110000     -34.16540000     -69.85440000
H      -44.68090000     -33.90790000     -70.71070000
H      -45.59360000     -33.18480000     -69.49610000
C      -46.47890000     -34.90210000     -70.35900000
C      -47.06520000     -35.91880000     -69.66850000
C      -47.26540000     -34.41290000     -71.43150000
H      -46.66100000     -36.56340000     -68.84640000
C      -48.42990000     -35.13940000     -71.61870000
C      -47.09990000     -33.29390000     -72.43650000
C      -48.11870000     -33.36130000     -73.35600000
S      -48.45330000     -36.50150000     -70.55280000
S      -49.34880000     -34.64540000     -73.07980000
H      -48.33570000     -32.64790000     -74.15690000
