40
Properties=species:S:1:pos:R:3 #=T CELL(abcABC):=T 1.889726e+02=T 90.00000=T Traj:=T positionsangstrom=T Step:=T 0=T Bead:=T pbc="F F F"
C      -42.82520000     -31.79140000     -72.79070000
C      -43.11410000     -31.21280000     -71.49090000
C      -42.61180000     -31.92660000     -70.38670000
C      -41.94780000     -33.17160000     -70.53040000
C      -41.78940000     -33.73080000     -71.79140000
C      -42.22760000     -33.05900000     -72.93560000
H      -43.14450000     -31.32200000     -73.73230000
H      -42.96720000     -31.50010000     -69.38890000
H      -41.20060000     -34.65140000     -71.95900000
H      -42.10850000     -33.48120000     -73.97130000
C      -41.45050000     -33.89770000     -69.32520000
H      -40.79310000     -33.29920000     -68.65290000
H      -40.91820000     -34.79420000     -69.67380000
C      -43.67280000     -29.84260000     -71.40570000
H      -44.00260000     -29.49040000     -70.40850000
H      -42.92680000     -29.14460000     -71.75430000
S      -42.81030000     -34.55140000     -68.22440000
S      -45.13810000     -29.52040000     -72.51340000
C      -44.10950000     -35.18820000     -69.53120000
H      -43.56970000     -35.66340000     -70.36750000
H      -44.64780000     -35.88990000     -68.92900000
C      -46.26750000     -30.98900000     -72.23810000
H      -47.19990000     -30.68670000     -72.84560000
H      -46.48010000     -31.06140000     -71.14950000
C      -45.83200000     -32.38150000     -72.88460000
H      -45.53350000     -32.10660000     -73.87970000
H      -44.99940000     -32.67040000     -72.28260000
C      -45.18750000     -34.13640000     -70.01350000
H      -44.72290000     -33.58440000     -70.84590000
H      -45.37410000     -33.46760000     -69.16780000
C      -46.46020000     -34.79440000     -70.52620000
C      -47.15680000     -35.66690000     -69.73650000
C      -47.13930000     -34.36200000     -71.69770000
H      -46.88200000     -36.08740000     -68.80250000
C      -48.28720000     -35.14520000     -71.85780000
C      -47.00420000     -33.29530000     -72.71000000
C      -48.05630000     -33.33750000     -73.56160000
S      -48.68470000     -36.22340000     -70.51210000
S      -49.11190000     -34.62290000     -73.21740000
H      -48.17460000     -32.75030000     -74.53080000
