40
Properties=species:S:1:pos:R:3 #=T CELL(abcABC):=T 1.889726e+02=T 90.00000=T Traj:=T positionsangstrom=T Step:=T 0=T Bead:=T pbc="F F F"
C      -42.86230000     -31.57770000     -73.32550000
C      -42.96430000     -31.21650000     -71.98200000
C      -42.52610000     -32.04100000     -70.99930000
C      -41.79130000     -33.19110000     -71.22950000
C      -41.58180000     -33.52810000     -72.59420000
C      -42.18270000     -32.76270000     -73.58920000
H      -43.36720000     -30.96680000     -74.04480000
H      -42.62070000     -31.60170000     -69.99460000
H      -41.16760000     -34.53160000     -72.86920000
H      -42.01890000     -33.11970000     -74.55830000
C      -41.24430000     -33.93400000     -70.01940000
H      -40.58130000     -33.23470000     -69.40420000
H      -40.54120000     -34.63740000     -70.49990000
C      -43.70130000     -29.92620000     -71.60330000
H      -44.00570000     -30.02070000     -70.53490000
H      -43.10950000     -29.13790000     -71.71900000
S      -42.41950000     -34.72960000     -68.88820000
S      -45.27740000     -29.63960000     -72.44480000
C      -43.74920000     -35.49450000     -69.92650000
H      -43.29260000     -36.04480000     -70.75640000
H      -44.12760000     -36.25890000     -69.30320000
C      -46.43270000     -30.97590000     -71.97760000
H      -47.33150000     -30.45790000     -72.24380000
H      -46.45360000     -31.21630000     -70.87940000
C      -46.20740000     -32.38730000     -72.59980000
H      -46.00330000     -32.36920000     -73.65150000
H      -45.21830000     -32.67790000     -72.25640000
C      -44.81590000     -34.47480000     -70.45370000
H      -44.41230000     -34.16150000     -71.39760000
H      -44.82820000     -33.47390000     -69.92890000
C      -46.24570000     -34.95390000     -70.52580000
C      -46.72130000     -36.00690000     -69.83140000
C      -47.26660000     -34.39290000     -71.38130000
H      -46.16230000     -36.46590000     -69.03200000
C      -48.50620000     -34.92960000     -71.09920000
C      -47.37280000     -33.25760000     -72.27880000
C      -48.70040000     -33.03180000     -72.63650000
S      -48.40020000     -36.23310000     -69.98250000
S      -49.79050000     -34.22720000     -72.04020000
H      -49.05150000     -32.26450000     -73.18680000
