40
Properties=species:S:1:pos:R:3 #=T CELL(abcABC):=T 1.889726e+02=T 90.00000=T Traj:=T positionsangstrom=T Step:=T 0=T Bead:=T pbc="F F F"
C      -42.93500000     -31.59080000     -73.22580000
C      -43.02210000     -31.09430000     -71.93930000
C      -42.47340000     -31.88550000     -70.91750000
C      -41.86320000     -33.10100000     -71.23390000
C      -41.75800000     -33.53220000     -72.57660000
C      -42.29530000     -32.74980000     -73.60060000
H      -43.26810000     -30.90200000     -74.02030000
H      -42.56980000     -31.53020000     -69.88800000
H      -41.23890000     -34.45600000     -72.76070000
H      -42.06250000     -32.84830000     -74.66430000
C      -41.23330000     -33.94560000     -70.16740000
H      -40.60670000     -33.32710000     -69.56260000
H      -40.52880000     -34.75280000     -70.59510000
C      -43.61680000     -29.77700000     -71.57020000
H      -43.78890000     -29.65630000     -70.57670000
H      -42.97920000     -28.92970000     -71.89270000
S      -42.40700000     -34.80860000     -68.99800000
S      -45.21560000     -29.58030000     -72.40220000
C      -43.77340000     -35.38020000     -70.05580000
H      -43.27580000     -35.78350000     -70.94890000
H      -44.33750000     -36.18110000     -69.49430000
C      -46.10600000     -31.11820000     -71.65470000
H      -47.10220000     -30.77780000     -71.15310000
H      -45.49870000     -31.55500000     -70.85290000
C      -46.37490000     -32.25880000     -72.70400000
H      -46.73360000     -31.82400000     -73.61740000
H      -45.43650000     -32.76890000     -72.78930000
C      -44.82470000     -34.29190000     -70.33780000
H      -44.64960000     -33.72120000     -71.30330000
H      -44.91410000     -33.59040000     -69.53100000
C      -46.21270000     -34.84780000     -70.41910000
C      -46.67200000     -35.92600000     -69.72360000
C      -47.27700000     -34.33190000     -71.29580000
H      -46.05160000     -36.44810000     -68.97510000
C      -48.47100000     -35.05530000     -71.20500000
C      -47.46630000     -33.20470000     -72.25650000
C      -48.77570000     -33.10030000     -72.72100000
S      -48.38530000     -36.31020000     -69.92770000
S      -49.77980000     -34.50080000     -72.20390000
H      -49.11280000     -32.42540000     -73.37430000
