40
Properties=species:S:1:pos:R:3 #=T CELL(abcABC):=T 1.889726e+02=T 90.00000=T Traj:=T positionsangstrom=T Step:=T 0=T Bead:=T pbc="F F F"
C      -43.74220000     -36.86540000     -71.82660000
C      -44.01530000     -36.41090000     -70.50290000
C      -45.32970000     -36.17110000     -70.14540000
C      -46.45100000     -36.49270000     -71.01870000
C      -46.11480000     -36.92110000     -72.28680000
C      -44.80820000     -37.15460000     -72.71420000
H      -42.76380000     -36.78930000     -72.24010000
H      -45.50310000     -36.04180000     -69.06100000
H      -47.02250000     -37.11560000     -72.94260000
H      -44.74950000     -37.50490000     -73.75090000
C      -47.87310000     -36.44900000     -70.57590000
H      -48.25570000     -37.30680000     -69.97780000
H      -48.53090000     -36.48920000     -71.51220000
C      -42.85550000     -36.15730000     -69.54090000
H      -43.16420000     -35.93070000     -68.55930000
H      -42.16520000     -36.99160000     -69.51880000
S      -48.39770000     -35.06170000     -69.44740000
S      -41.82480000     -34.75670000     -70.33550000
C      -48.01080000     -33.61400000     -70.52140000
H      -48.42950000     -33.80230000     -71.58820000
H      -48.63880000     -32.85210000     -70.16100000
C      -43.11890000     -33.45290000     -70.60760000
H      -42.69320000     -32.57190000     -70.21610000
H      -43.95240000     -33.66300000     -69.97400000
C      -43.35880000     -33.14180000     -72.05970000
H      -42.40130000     -32.97870000     -72.54520000
H      -43.80550000     -34.02350000     -72.49810000
C      -46.55660000     -33.16460000     -70.67030000
H      -46.08660000     -33.75220000     -71.42910000
H      -46.00200000     -33.14910000     -69.73910000
C      -46.50640000     -31.78830000     -71.21090000
C      -47.40220000     -30.75250000     -70.93500000
C      -45.42310000     -31.29790000     -72.00620000
H      -48.17900000     -30.85740000     -70.23100000
C      -45.72350000     -30.03280000     -72.56080000
C      -44.10830000     -31.86420000     -72.38290000
C      -43.37370000     -30.88880000     -72.98890000
S      -47.02970000     -29.19900000     -71.74060000
S      -44.28490000     -29.42310000     -73.35970000
H      -42.38220000     -30.84000000     -73.39620000
