40
Properties=species:S:1:pos:R:3 #=T CELL(abcABC):=T 1.889726e+02=T 90.00000=T Traj:=T positionsangstrom=T Step:=T 0=T Bead:=T pbc="F F F"
C      -46.13610000     -34.75170000     -74.78430000
C      -46.60310000     -33.46560000     -74.37070000
C      -47.65140000     -33.38270000     -73.43530000
C      -48.26270000     -34.53760000     -72.92040000
C      -47.74440000     -35.77660000     -73.38570000
C      -46.69390000     -35.90600000     -74.27670000
H      -45.20840000     -34.93380000     -75.38920000
H      -48.21420000     -32.40380000     -73.32120000
H      -48.22290000     -36.71440000     -73.03410000
H      -46.49540000     -36.90970000     -74.64120000
C      -49.31170000     -34.47260000     -71.84410000
H      -49.64060000     -35.36010000     -71.42930000
H      -50.12060000     -34.03810000     -72.45940000
C      -45.99410000     -32.21790000     -74.94810000
H      -46.25040000     -32.11570000     -75.99270000
H      -46.37590000     -31.28540000     -74.41590000
S      -49.04500000     -33.29920000     -70.40740000
S      -44.13680000     -32.25810000     -74.81690000
C      -47.53110000     -33.83550000     -69.38700000
H      -47.52920000     -33.01770000     -68.64320000
H      -47.57590000     -34.76610000     -68.92080000
C      -43.86370000     -32.80390000     -73.07840000
H      -42.94000000     -33.24600000     -73.06440000
H      -44.56750000     -33.59010000     -72.91740000
C      -43.95260000     -31.70530000     -72.08380000
H      -43.45660000     -30.83000000     -72.56050000
H      -44.98410000     -31.37250000     -71.88150000
C      -46.30930000     -33.74820000     -70.22860000
H      -46.27490000     -32.91980000     -70.87280000
H      -46.31150000     -34.57700000     -70.93810000
C      -45.10850000     -33.69140000     -69.38620000
C      -44.94880000     -34.44460000     -68.24790000
C      -43.88730000     -32.98250000     -69.70800000
H      -45.74150000     -35.05420000     -67.86760000
C      -42.92830000     -33.20970000     -68.72250000
C      -43.41160000     -32.06690000     -70.74060000
C      -42.17220000     -31.51400000     -70.37740000
S      -43.42680000     -34.28880000     -67.40390000
S      -41.50540000     -32.21780000     -68.86710000
H      -41.50910000     -30.86500000     -70.94280000
