40
Properties=species:S:1:pos:R:3 #=T CELL(abcABC):=T 1.889726e+02=T 90.00000=T Traj:=T positionsangstrom=T Step:=T 0=T Bead:=T pbc="F F F"
C      -42.79760000     -32.23270000     -73.29450000
C      -42.69320000     -31.52180000     -72.07680000
C      -42.35340000     -32.20720000     -70.92280000
C      -41.98370000     -33.59030000     -71.00070000
C      -41.96950000     -34.21870000     -72.19140000
C      -42.45170000     -33.58740000     -73.33150000
H      -43.04830000     -31.79350000     -74.32960000
H      -42.29930000     -31.71010000     -69.95800000
H      -41.53640000     -35.23380000     -72.33950000
H      -42.37340000     -34.14290000     -74.33320000
C      -41.67690000     -34.35970000     -69.68900000
H      -40.65350000     -34.04710000     -69.38870000
H      -41.74360000     -35.39440000     -69.99220000
C      -43.10120000     -30.10420000     -72.04490000
H      -42.91390000     -29.78030000     -70.96920000
H      -42.46730000     -29.49990000     -72.68610000
S      -42.78940000     -34.15520000     -68.31330000
S      -44.80630000     -29.74240000     -72.54990000
C      -44.43170000     -34.72240000     -68.75930000
H      -44.36600000     -35.84910000     -68.79510000
H      -45.14980000     -34.51020000     -67.97860000
C      -45.88610000     -31.10990000     -71.86520000
H      -46.86280000     -30.67600000     -71.92160000
H      -45.53350000     -31.20360000     -70.84490000
C      -45.90940000     -32.31740000     -72.83690000
H      -46.04520000     -31.88250000     -73.77100000
H      -44.97930000     -32.90910000     -72.85520000
C      -45.03770000     -34.12860000     -70.03930000
H      -44.32780000     -34.30280000     -70.81910000
H      -45.17740000     -33.04930000     -69.86130000
C      -46.42440000     -34.72080000     -70.37840000
C      -47.11000000     -35.56800000     -69.60560000
C      -47.18310000     -34.31090000     -71.57200000
H      -46.84710000     -36.04410000     -68.65860000
C      -48.49940000     -34.77790000     -71.53200000
C      -47.02300000     -33.32330000     -72.62900000
C      -48.23340000     -33.19230000     -73.28530000
S      -48.74040000     -35.92350000     -70.18770000
S      -49.57360000     -34.23070000     -72.76140000
H      -48.54250000     -32.58320000     -74.12740000
