40
Properties=species:S:1:pos:R:3 #=T CELL(abcABC):=T 1.889726e+02=T 90.00000=T Traj:=T positionsangstrom=T Step:=T 0=T Bead:=T pbc="F F F"
C      -42.52160000     -32.36080000     -73.35690000
C      -42.67870000     -31.68410000     -72.13440000
C      -42.45560000     -32.37540000     -70.94610000
C      -42.01770000     -33.69760000     -71.01970000
C      -41.82930000     -34.36850000     -72.24490000
C      -42.02460000     -33.64750000     -73.39680000
H      -42.74700000     -32.01300000     -74.32250000
H      -42.57550000     -31.84330000     -69.99990000
H      -41.41270000     -35.31180000     -72.33230000
H      -41.87870000     -34.12050000     -74.32290000
C      -41.79340000     -34.45470000     -69.67280000
H      -40.79260000     -34.36220000     -69.27540000
H      -41.77400000     -35.52340000     -69.92910000
C      -43.03150000     -30.17170000     -72.15020000
H      -42.93410000     -29.75840000     -71.13250000
H      -42.32290000     -29.66040000     -72.87390000
S      -43.03350000     -34.14470000     -68.25150000
S      -44.66000000     -29.77770000     -72.81600000
C      -44.43280000     -35.04750000     -68.91410000
H      -44.19610000     -36.01510000     -69.35120000
H      -45.01430000     -35.33420000     -68.02050000
C      -45.77050000     -30.93050000     -71.99380000
H      -46.72800000     -30.45390000     -72.12020000
H      -45.54740000     -31.02300000     -70.95810000
C      -45.78890000     -32.37490000     -72.68470000
H      -45.82030000     -32.20300000     -73.82170000
H      -44.83740000     -32.84620000     -72.48970000
C      -45.12430000     -34.19820000     -69.95810000
H      -44.43780000     -34.29070000     -70.79670000
H      -45.13380000     -33.17360000     -69.65800000
C      -46.58990000     -34.62780000     -70.21470000
C      -47.30520000     -35.58160000     -69.47820000
C      -47.30170000     -34.10880000     -71.29310000
H      -47.13070000     -36.03040000     -68.55060000
C      -48.59390000     -34.62680000     -71.41130000
C      -47.02790000     -33.24000000     -72.38770000
C      -48.13470000     -33.07000000     -73.23050000
S      -48.94490000     -35.73190000     -70.08410000
S      -49.44600000     -34.12820000     -72.86010000
H      -48.11300000     -32.38980000     -74.08410000
