40
Properties=species:S:1:pos:R:3 #=T CELL(abcABC):=T 1.889726e+02=T 90.00000=T Traj:=T positionsangstrom=T Step:=T 0=T Bead:=T pbc="F F F"
C      -41.73850000     -32.07570000     -70.16360000
C      -42.92970000     -31.32220000     -70.33630000
C      -43.36270000     -31.07500000     -71.64550000
C      -42.64580000     -31.60060000     -72.76010000
C      -41.53060000     -32.39290000     -72.60240000
C      -41.04110000     -32.54700000     -71.28440000
H      -41.35840000     -32.26790000     -69.17310000
H      -44.29110000     -30.46410000     -71.73430000
H      -40.92390000     -32.71430000     -73.47100000
H      -40.19540000     -33.27610000     -71.18950000
C      -43.04190000     -31.44870000     -74.17960000
H      -42.33610000     -31.96080000     -74.79910000
H      -43.05640000     -30.45270000     -74.67000000
C      -43.67040000     -30.81490000     -69.17280000
H      -43.01820000     -30.03030000     -68.68770000
H      -44.66950000     -30.31370000     -69.45690000
S      -44.51730000     -32.46430000     -74.59090000
S      -43.93340000     -32.15680000     -67.90610000
C      -45.95690000     -31.77650000     -73.63950000
H      -45.66370000     -30.79420000     -73.25910000
H      -46.82350000     -31.75280000     -74.28840000
C      -44.86430000     -33.42870000     -68.83210000
H      -44.76370000     -34.38140000     -68.30420000
H      -44.34180000     -33.57880000     -69.78260000
C      -46.40900000     -33.02370000     -68.98910000
H      -46.76740000     -32.75540000     -68.02840000
H      -46.49670000     -32.11210000     -69.54170000
C      -46.32860000     -32.45480000     -72.29240000
H      -47.22540000     -31.94650000     -71.89530000
H      -45.45970000     -32.46900000     -71.62560000
C      -46.76310000     -33.91630000     -72.33580000
C      -47.18810000     -34.57230000     -73.41680000
C      -47.20220000     -34.52300000     -71.07890000
H      -47.11150000     -34.21600000     -74.44730000
C      -47.84250000     -35.78520000     -71.34140000
C      -47.09250000     -34.28050000     -69.72130000
C      -47.54330000     -35.34490000     -68.93700000
S      -48.10150000     -36.06110000     -73.05080000
S      -48.24400000     -36.64980000     -69.92780000
H      -47.35600000     -35.45350000     -67.90660000
