40
Properties=species:S:1:pos:R:3 #=T CELL(abcABC):=T 1.889726e+02=T 90.00000=T Traj:=T positionsangstrom=T Step:=T 0=T Bead:=T pbc="F F F"
C      -46.15780000     -34.77720000     -74.74250000
C      -46.49160000     -33.51520000     -74.36790000
C      -47.52160000     -33.36030000     -73.39330000
C      -48.30740000     -34.47240000     -73.01790000
C      -47.95170000     -35.72620000     -73.52860000
C      -46.86790000     -35.90040000     -74.37130000
H      -45.32390000     -35.00820000     -75.39660000
H      -47.76490000     -32.44000000     -72.94610000
H      -48.49420000     -36.57120000     -73.24840000
H      -46.55070000     -36.94640000     -74.55550000
C      -49.49260000     -34.25480000     -72.09060000
H      -49.81980000     -35.21300000     -71.68340000
H      -50.35240000     -33.77880000     -72.50460000
C      -45.77860000     -32.18510000     -74.79650000
H      -46.04390000     -31.85180000     -75.86450000
H      -46.06430000     -31.32420000     -74.17290000
S      -49.14940000     -33.21220000     -70.57500000
S      -43.94650000     -32.18520000     -74.76530000
C      -47.60000000     -34.03970000     -69.83220000
H      -47.83330000     -34.05940000     -68.84140000
H      -47.61220000     -35.07130000     -70.15970000
C      -43.54380000     -32.69060000     -73.02650000
H      -42.47540000     -32.90820000     -72.99750000
H      -44.11700000     -33.54790000     -72.70660000
C      -43.88770000     -31.60190000     -71.87850000
H      -43.38210000     -30.66530000     -72.15200000
H      -44.93050000     -31.32880000     -71.80610000
C      -46.37820000     -33.21170000     -70.27570000
H      -46.71470000     -32.17120000     -70.32190000
H      -46.15400000     -33.54850000     -71.27450000
C      -45.17460000     -33.47000000     -69.36030000
C      -45.20780000     -34.27100000     -68.26730000
C      -43.86000000     -32.92460000     -69.62070000
H      -46.01970000     -34.94150000     -67.88950000
C      -42.97900000     -33.35840000     -68.59440000
C      -43.20670000     -32.04920000     -70.55340000
C      -41.90100000     -31.71480000     -70.15950000
S      -43.69260000     -34.45460000     -67.44280000
S      -41.41910000     -32.63040000     -68.73420000
H      -41.20470000     -31.09730000     -70.65600000
