40
Properties=species:S:1:pos:R:3 #=T CELL(abcABC):=T 1.889726e+02=T 90.00000=T Traj:=T positionsangstrom=T Step:=T 0=T Bead:=T pbc="F F F"
C      -41.53540000     -32.76740000     -70.62050000
C      -42.57060000     -31.76860000     -70.58260000
C      -43.18420000     -31.37380000     -71.82150000
C      -42.66760000     -31.88950000     -73.00800000
C      -41.64720000     -32.88980000     -73.03920000
C      -41.09320000     -33.30040000     -71.84480000
H      -41.09170000     -32.94620000     -69.65120000
H      -43.84950000     -30.50590000     -71.88120000
H      -41.41430000     -33.19140000     -74.00160000
H      -40.32870000     -34.07990000     -71.97590000
C      -43.22320000     -31.41790000     -74.32250000
H      -42.33610000     -31.11740000     -74.90370000
H      -43.76810000     -30.49900000     -73.98820000
C      -42.95010000     -31.00530000     -69.37610000
H      -42.09000000     -30.45600000     -69.10480000
H      -43.70320000     -30.28150000     -69.59740000
S      -44.28830000     -32.65620000     -75.13050000
S      -43.50680000     -32.05930000     -67.88570000
C      -45.84000000     -32.68090000     -74.14420000
H      -46.36750000     -31.70090000     -74.26500000
H      -46.40070000     -33.46970000     -74.68740000
C      -44.39870000     -33.52790000     -68.65020000
H      -44.56640000     -34.23490000     -67.79950000
H      -43.60050000     -34.02150000     -69.29660000
C      -45.72180000     -33.00830000     -69.23300000
H      -46.19670000     -32.29480000     -68.55310000
H      -45.47750000     -32.55320000     -70.20970000
C      -45.77120000     -33.17280000     -72.69290000
H      -45.63730000     -32.28420000     -71.94460000
H      -44.80760000     -33.65670000     -72.57330000
C      -46.98410000     -33.97730000     -72.27770000
C      -47.86340000     -34.54120000     -73.18670000
C      -47.28070000     -34.27400000     -70.88770000
H      -47.83990000     -34.54900000     -74.26600000
C      -48.32610000     -35.18750000     -70.83760000
C      -46.76950000     -34.02810000     -69.55740000
C      -47.45250000     -34.73240000     -68.58220000
S      -49.11420000     -35.51180000     -72.37880000
S      -48.75700000     -35.74600000     -69.22880000
H      -47.00760000     -34.66480000     -67.59220000
