40
Properties=species:S:1:pos:R:3 #=T CELL(abcABC):=T 1.889726e+02=T 90.00000=T Traj:=T positionsangstrom=T Step:=T 0=T Bead:=T pbc="F F F"
C      -41.43060000     -32.77840000     -70.70490000
C      -42.37090000     -31.66240000     -70.57850000
C      -43.00170000     -31.30670000     -71.78960000
C      -42.66460000     -31.93660000     -73.02560000
C      -41.70500000     -32.92980000     -73.13940000
C      -41.13980000     -33.39980000     -71.93390000
H      -40.92660000     -33.01810000     -69.75010000
H      -43.86670000     -30.66490000     -71.77570000
H      -41.52440000     -33.36900000     -74.12520000
H      -40.53170000     -34.25030000     -71.95850000
C      -43.37810000     -31.39490000     -74.25170000
H      -42.59520000     -31.09240000     -74.93730000
H      -44.11080000     -30.56200000     -74.15330000
C      -42.69290000     -31.05330000     -69.28750000
H      -41.76860000     -30.55190000     -68.84290000
H      -43.53320000     -30.33060000     -69.47080000
S      -44.32540000     -32.74720000     -75.12590000
S      -43.39220000     -32.08350000     -67.90370000
C      -45.91300000     -32.71440000     -74.19560000
H      -46.24210000     -31.73290000     -74.09500000
H      -46.65330000     -33.19240000     -74.82460000
C      -44.47530000     -33.30530000     -68.70810000
H      -44.65880000     -34.03570000     -67.91860000
H      -44.00890000     -33.80350000     -69.55370000
C      -45.81590000     -32.75730000     -69.18600000
H      -46.16500000     -32.02730000     -68.43120000
H      -45.62500000     -32.13540000     -70.06930000
C      -45.73110000     -33.39420000     -72.88730000
H      -45.28390000     -32.69830000     -72.15340000
H      -44.97290000     -34.20030000     -72.93290000
C      -47.07410000     -33.96650000     -72.31900000
C      -47.98520000     -34.58060000     -73.18740000
C      -47.31930000     -34.29880000     -70.89200000
H      -47.97170000     -34.64710000     -74.24740000
C      -48.39150000     -35.18010000     -70.78220000
C      -46.79750000     -33.93130000     -69.54730000
C      -47.38600000     -34.75790000     -68.59140000
S      -49.17810000     -35.52100000     -72.27820000
S      -48.73800000     -35.68240000     -69.17240000
H      -47.16380000     -34.58450000     -67.53380000
