40
Properties=species:S:1:pos:R:3 #=T CELL(abcABC):=T 1.889726e+02=T 90.00000=T Traj:=T positionsangstrom=T Step:=T 0=T Bead:=T pbc="F F F"
C      -41.63820000     -32.41030000     -70.35730000
C      -42.76930000     -31.55590000     -70.45720000
C      -43.26320000     -31.19630000     -71.70030000
C      -42.68330000     -31.83410000     -72.85820000
C      -41.65120000     -32.78110000     -72.76570000
C      -41.19540000     -33.12540000     -71.48090000
H      -41.17730000     -32.66240000     -69.40380000
H      -44.08060000     -30.50260000     -71.83220000
H      -41.33370000     -33.38060000     -73.68140000
H      -40.39610000     -33.84540000     -71.39420000
C      -43.10710000     -31.47720000     -74.22900000
H      -42.23190000     -31.38320000     -74.94180000
H      -43.66810000     -30.55560000     -74.18380000
C      -43.24690000     -30.94300000     -69.16030000
H      -42.54150000     -30.27240000     -68.68690000
H      -44.15630000     -30.45240000     -69.40680000
S      -44.26580000     -32.71060000     -74.96880000
S      -43.45140000     -32.23220000     -67.88010000
C      -45.93690000     -32.29620000     -74.20870000
H      -46.07550000     -31.21450000     -74.14100000
H      -46.80150000     -32.60450000     -74.83010000
C      -44.51160000     -33.49960000     -68.76340000
H      -44.77780000     -34.13740000     -67.86520000
H      -43.78490000     -34.06660000     -69.46940000
C      -45.79240000     -32.89150000     -69.43310000
H      -46.29070000     -32.13020000     -68.69910000
H      -45.62250000     -32.25330000     -70.32020000
C      -46.00630000     -32.91690000     -72.75450000
H      -46.15470000     -32.07230000     -72.08100000
H      -45.00710000     -33.40010000     -72.44030000
C      -47.05410000     -33.99320000     -72.45240000
C      -47.86800000     -34.70400000     -73.29300000
C      -47.34860000     -34.31150000     -71.04910000
H      -47.72070000     -34.79120000     -74.39600000
C      -48.36590000     -35.26140000     -70.95000000
C      -46.74630000     -33.95360000     -69.80440000
C      -47.33050000     -34.74320000     -68.81470000
S      -48.96430000     -35.78960000     -72.51090000
S      -48.44320000     -35.92560000     -69.33720000
H      -47.16880000     -34.64860000     -67.76590000
