40
Properties=species:S:1:pos:R:3 #=T CELL(abcABC):=T 1.889726e+02=T 90.00000=T Traj:=T positionsangstrom=T Step:=T 0=T Bead:=T pbc="F F F"
C      -41.49310000     -32.73020000     -70.59940000
C      -42.35120000     -31.62020000     -70.60030000
C      -42.95790000     -31.16050000     -71.83130000
C      -42.76070000     -31.88080000     -72.99580000
C      -41.95850000     -33.04450000     -72.99410000
C      -41.25710000     -33.44430000     -71.82400000
H      -40.95410000     -33.02100000     -69.68680000
H      -43.53260000     -30.19360000     -71.72710000
H      -41.88070000     -33.57700000     -73.93270000
H      -40.43800000     -34.20310000     -71.80870000
C      -43.42550000     -31.39310000     -74.28220000
H      -42.56520000     -31.03650000     -74.89620000
H      -44.05900000     -30.54770000     -73.95380000
C      -42.77380000     -31.01760000     -69.34270000
H      -42.01700000     -30.49230000     -68.74350000
H      -43.64180000     -30.28830000     -69.49900000
S      -44.37870000     -32.74120000     -75.09800000
S      -43.23660000     -32.33980000     -68.06640000
C      -46.05510000     -32.91720000     -74.32840000
H      -46.55240000     -31.92770000     -74.37820000
H      -46.53030000     -33.55880000     -75.00570000
C      -44.24690000     -33.44640000     -69.14920000
H      -44.41400000     -34.36900000     -68.51610000
H      -43.64380000     -33.72490000     -70.04740000
C      -45.60440000     -32.77940000     -69.46470000
H      -45.85050000     -32.13220000     -68.58740000
H      -45.34980000     -32.24360000     -70.32320000
C      -45.90920000     -33.35240000     -72.89120000
H      -45.68070000     -32.43170000     -72.36100000
H      -44.93980000     -33.90910000     -72.72440000
C      -47.04570000     -34.17740000     -72.35230000
C      -47.89420000     -34.91840000     -73.11690000
C      -47.31620000     -34.27190000     -70.93450000
H      -47.98340000     -34.95990000     -74.23410000
C      -48.50020000     -34.99580000     -70.65270000
C      -46.73500000     -33.78550000     -69.69120000
C      -47.36390000     -34.30760000     -68.55840000
S      -49.10250000     -35.72170000     -72.09060000
S      -48.78820000     -35.27020000     -68.96210000
H      -47.15310000     -34.29930000     -67.54700000
