40
Properties=species:S:1:pos:R:3 #=T CELL(abcABC):=T 1.889726e+02=T 90.00000=T Traj:=T positionsangstrom=T Step:=T 0=T Bead:=T pbc="F F F"
C      -41.28400000     -32.63810000     -70.92070000
C      -42.38300000     -31.71120000     -70.71300000
C      -43.18290000     -31.27560000     -71.78320000
C      -42.92510000     -31.71430000     -73.07880000
C      -41.82730000     -32.59180000     -73.31080000
C      -41.03050000     -33.04070000     -72.25550000
H      -40.59720000     -32.82530000     -70.05280000
H      -43.98050000     -30.54680000     -71.59420000
H      -41.59270000     -33.02780000     -74.33000000
H      -40.11620000     -33.56690000     -72.42730000
C      -43.87760000     -31.35470000     -74.16110000
H      -43.50870000     -30.76610000     -74.97450000
H      -44.78860000     -30.88140000     -73.80250000
C      -42.64030000     -31.20400000     -69.33190000
H      -41.80090000     -30.59170000     -68.90930000
H      -43.41340000     -30.38290000     -69.32090000
S      -44.41420000     -32.78060000     -75.26120000
S      -43.19770000     -32.52920000     -68.06750000
C      -45.91160000     -33.53170000     -74.43950000
H      -46.80810000     -32.95670000     -74.71240000
H      -46.10000000     -34.54000000     -74.81820000
C      -44.45370000     -33.45600000     -68.96080000
H      -44.75370000     -34.34650000     -68.36500000
H      -43.93900000     -33.91050000     -69.83560000
C      -45.63490000     -32.59440000     -69.40590000
H      -45.91680000     -31.88580000     -68.66970000
H      -45.30640000     -31.98050000     -70.27460000
C      -45.75150000     -33.63400000     -72.88600000
H      -45.65550000     -32.64860000     -72.46040000
H      -44.79490000     -34.18090000     -72.62170000
C      -46.94660000     -34.27390000     -72.23420000
C      -47.78540000     -35.12060000     -72.93150000
C      -47.27810000     -34.15780000     -70.80440000
H      -47.65810000     -35.41650000     -73.94190000
C      -48.32070000     -35.05310000     -70.53360000
C      -46.78510000     -33.52650000     -69.59250000
C      -47.55080000     -33.93070000     -68.52860000
S      -49.04100000     -35.81330000     -71.87310000
S      -48.85020000     -35.08170000     -68.89620000
H      -47.49510000     -33.43430000     -67.51800000
