40
Properties=species:S:1:pos:R:3 #=T CELL(abcABC):=T 1.889726e+02=T 90.00000=T Traj:=T positionsangstrom=T Step:=T 0=T Bead:=T pbc="F F F"
C      -46.07950000     -34.46290000     -75.03560000
C      -46.43350000     -33.22390000     -74.45490000
C      -47.56200000     -33.20100000     -73.68820000
C      -48.14240000     -34.32990000     -73.17570000
C      -47.70310000     -35.60070000     -73.70360000
C      -46.72230000     -35.59760000     -74.70410000
H      -45.30690000     -34.40820000     -75.73530000
H      -47.94390000     -32.25100000     -73.24670000
H      -48.14550000     -36.57780000     -73.32460000
H      -46.43300000     -36.50790000     -75.24370000
C      -49.35890000     -34.27780000     -72.27750000
H      -49.70160000     -35.23740000     -72.02530000
H      -50.19750000     -33.87980000     -72.86900000
C      -45.65690000     -31.89370000     -74.64740000
H      -45.68440000     -31.52850000     -75.67360000
H      -46.09810000     -31.08910000     -73.94870000
S      -49.19410000     -33.09440000     -70.87870000
S      -43.81920000     -32.15130000     -74.49020000
C      -47.74010000     -33.74460000     -69.95480000
H      -47.97760000     -33.57180000     -68.89110000
H      -47.63670000     -34.73930000     -70.18680000
C      -43.79970000     -32.83660000     -72.75420000
H      -42.89380000     -33.46400000     -72.78820000
H      -44.71280000     -33.48430000     -72.56470000
C      -43.73490000     -31.70780000     -71.66440000
H      -43.11470000     -30.87580000     -72.03220000
H      -44.76390000     -31.39210000     -71.48700000
C      -46.41390000     -33.05290000     -70.31010000
H      -46.55220000     -31.99570000     -70.26850000
H      -46.07740000     -33.25810000     -71.35990000
C      -45.25560000     -33.44780000     -69.31990000
C      -45.48740000     -34.33100000     -68.32520000
C      -43.84320000     -33.03210000     -69.38030000
H      -46.41850000     -34.67570000     -67.97290000
C      -43.01710000     -33.50100000     -68.37170000
C      -43.11890000     -32.23950000     -70.40460000
C      -41.76490000     -32.12040000     -70.09530000
S      -43.99160000     -34.62730000     -67.36940000
S      -41.38800000     -33.01580000     -68.60010000
H      -40.94770000     -31.59430000     -70.59570000
