40
Properties=species:S:1:pos:R:3 #=T CELL(abcABC):=T 1.889726e+02=T 90.00000=T Traj:=T positionsangstrom=T Step:=T 0=T Bead:=T pbc="F F F"
C      -41.03360000     -32.38910000     -71.15370000
C      -42.21780000     -31.72160000     -70.74620000
C      -43.17550000     -31.34770000     -71.75770000
C      -42.99590000     -31.69210000     -73.11430000
C      -41.81660000     -32.32170000     -73.48580000
C      -40.90320000     -32.64740000     -72.50230000
H      -40.23770000     -32.65740000     -70.44790000
H      -44.13160000     -30.92330000     -71.45810000
H      -41.64520000     -32.52710000     -74.54820000
H      -39.96790000     -33.19050000     -72.77380000
C      -44.08870000     -31.35950000     -74.15740000
H      -43.77760000     -30.49650000     -74.80080000
H      -45.01840000     -31.04620000     -73.64650000
C      -42.44550000     -31.31120000     -69.35250000
H      -41.60980000     -30.72120000     -68.96660000
H      -43.23810000     -30.55710000     -69.43200000
S      -44.57160000     -32.75960000     -75.19880000
S      -42.94820000     -32.65550000     -68.21060000
C      -45.68290000     -33.88930000     -74.25850000
H      -46.68940000     -33.81840000     -74.71600000
H      -45.20940000     -34.88510000     -74.54410000
C      -44.41520000     -33.53640000     -68.94400000
H      -44.72780000     -34.32760000     -68.18640000
H      -44.11310000     -34.02840000     -69.89190000
C      -45.63590000     -32.66570000     -69.22560000
H      -45.85520000     -31.97160000     -68.38660000
H      -45.43730000     -32.12870000     -70.13880000
C      -45.76020000     -33.67510000     -72.74420000
H      -45.96150000     -32.55470000     -72.63390000
H      -44.85100000     -33.85980000     -72.26430000
C      -46.84430000     -34.48160000     -72.09170000
C      -47.63200000     -35.39220000     -72.78490000
C      -47.26350000     -34.35040000     -70.70790000
H      -47.60960000     -35.63530000     -73.87110000
C      -48.45910000     -35.06360000     -70.44320000
C      -46.89860000     -33.51200000     -69.55880000
C      -47.86640000     -33.61210000     -68.56590000
S      -48.93590000     -35.99780000     -71.87540000
S      -49.22480000     -34.71250000     -68.92810000
H      -47.67510000     -33.18960000     -67.57320000
