40
Properties=species:S:1:pos:R:3 #=T CELL(abcABC):=T 1.889726e+02=T 90.00000=T Traj:=T positionsangstrom=T Step:=T 0=T Bead:=T pbc="F F F"
C      -41.21760000     -32.35230000     -71.08470000
C      -42.39090000     -31.69170000     -70.78130000
C      -43.24860000     -31.39680000     -71.88420000
C      -42.84200000     -31.59330000     -73.23060000
C      -41.59030000     -32.14960000     -73.47390000
C      -40.79500000     -32.55360000     -72.38220000
H      -40.64590000     -32.67700000     -70.23380000
H      -44.21900000     -30.91440000     -71.73100000
H      -41.30900000     -32.12500000     -74.45290000
H      -39.82010000     -32.85490000     -72.50270000
C      -43.83600000     -31.14400000     -74.33220000
H      -43.16550000     -30.82430000     -75.12090000
H      -44.37600000     -30.30320000     -73.90840000
C      -42.68940000     -31.38720000     -69.34670000
H      -41.74940000     -31.11450000     -68.85910000
H      -43.39120000     -30.55840000     -69.32150000
S      -44.89410000     -32.50700000     -74.97770000
S      -43.14840000     -32.81880000     -68.29790000
C      -45.86980000     -32.95290000     -73.45280000
H      -45.79550000     -32.07620000     -72.85190000
H      -46.89890000     -33.07830000     -73.78270000
C      -44.50620000     -33.59710000     -69.30860000
H      -44.90800000     -34.36610000     -68.65060000
H      -43.96510000     -34.06380000     -70.12360000
C      -45.70840000     -32.62160000     -69.75070000
H      -45.74850000     -31.87120000     -68.92180000
H      -45.43140000     -32.05720000     -70.67000000
C      -45.45990000     -34.23110000     -72.70240000
H      -44.67720000     -33.96890000     -71.97450000
H      -45.09270000     -34.89260000     -73.40410000
C      -46.67090000     -34.80910000     -72.04220000
C      -47.33550000     -35.86880000     -72.61410000
C      -47.27360000     -34.35440000     -70.81610000
H      -47.10330000     -36.42620000     -73.51970000
C      -48.39760000     -35.10530000     -70.46760000
C      -46.99060000     -33.38480000     -69.81270000
C      -47.83300000     -33.40150000     -68.72270000
S      -48.75750000     -36.38750000     -71.71460000
S      -49.10940000     -34.60560000     -69.00500000
H      -47.88970000     -32.63980000     -67.89440000
