40
Properties=species:S:1:pos:R:3 #=T CELL(abcABC):=T 1.889726e+02=T 90.00000=T Traj:=T positionsangstrom=T Step:=T 0=T Bead:=T pbc="F F F"
C      -41.09810000     -32.46100000     -71.13510000
C      -42.27570000     -31.74880000     -70.77510000
C      -43.22870000     -31.37530000     -71.78680000
C      -42.99120000     -31.68330000     -73.11570000
C      -41.84230000     -32.45720000     -73.44410000
C      -40.92140000     -32.80490000     -72.53220000
H      -40.42890000     -32.88860000     -70.31810000
H      -44.12950000     -30.76510000     -71.51790000
H      -41.65800000     -32.67910000     -74.51030000
H      -40.03790000     -33.34190000     -72.83000000
C      -44.05040000     -31.24760000     -74.20280000
H      -43.59140000     -30.45980000     -74.86980000
H      -44.91830000     -30.77230000     -73.73430000
C      -42.57870000     -31.28720000     -69.39070000
H      -41.62160000     -31.08430000     -68.98570000
H      -43.32340000     -30.47190000     -69.40770000
S      -44.43770000     -32.76460000     -75.21090000
S      -43.11790000     -32.52670000     -68.10760000
C      -45.72250000     -33.74050000     -74.26170000
H      -46.74040000     -33.48230000     -74.65100000
H      -45.47690000     -34.74730000     -74.49330000
C      -44.43930000     -33.54110000     -68.91040000
H      -44.84050000     -34.08360000     -68.06580000
H      -43.91190000     -34.17620000     -69.57450000
C      -45.58260000     -32.73330000     -69.52250000
H      -45.68180000     -31.88820000     -68.78410000
H      -45.32980000     -32.32530000     -70.46300000
C      -45.76280000     -33.57750000     -72.71750000
H      -45.86560000     -32.55350000     -72.45170000
H      -44.81160000     -33.86810000     -72.22020000
C      -46.91290000     -34.34770000     -72.13460000
C      -47.62030000     -35.31860000     -72.84010000
C      -47.36220000     -34.23660000     -70.76240000
H      -47.66160000     -35.51890000     -73.89970000
C      -48.44500000     -35.07330000     -70.45910000
C      -46.89530000     -33.55150000     -69.59750000
C      -47.69170000     -33.80380000     -68.51030000
S      -48.97260000     -35.96030000     -71.86520000
S      -49.05030000     -34.86450000     -68.84110000
H      -47.55790000     -33.46230000     -67.48440000
