40
Properties=species:S:1:pos:R:3 #=T CELL(abcABC):=T 1.889726e+02=T 90.00000=T Traj:=T positionsangstrom=T Step:=T 0=T Bead:=T pbc="F F F"
C      -41.49210000     -32.58860000     -71.00880000
C      -42.50050000     -31.63900000     -70.84630000
C      -43.23560000     -31.23340000     -71.94780000
C      -42.83590000     -31.62140000     -73.23390000
C      -41.84700000     -32.63070000     -73.40320000
C      -41.20170000     -33.15230000     -72.27520000
H      -41.05980000     -32.99510000     -70.11730000
H      -44.13300000     -30.62260000     -71.87610000
H      -41.61050000     -33.11430000     -74.29300000
H      -40.36000000     -33.76310000     -72.39820000
C      -43.63280000     -31.21750000     -74.43600000
H      -42.96860000     -31.08970000     -75.31720000
H      -44.04650000     -30.22230000     -74.30830000
C      -42.70250000     -31.08430000     -69.42900000
H      -41.78920000     -30.75570000     -68.93160000
H      -43.34140000     -30.22050000     -69.44810000
S      -45.04140000     -32.30920000     -74.87510000
S      -43.31730000     -32.31920000     -68.19310000
C      -45.87470000     -32.63210000     -73.26560000
H      -45.73350000     -31.80480000     -72.58500000
H      -46.94930000     -32.69850000     -73.36870000
C      -44.54090000     -33.29670000     -69.09920000
H      -44.70960000     -34.14240000     -68.42390000
H      -44.05780000     -33.75150000     -70.02370000
C      -45.91420000     -32.57490000     -69.45910000
H      -46.25710000     -31.90360000     -68.77710000
H      -45.80000000     -32.05810000     -70.40040000
C      -45.30010000     -33.93910000     -72.64750000
H      -44.61100000     -33.68110000     -71.82420000
H      -44.61550000     -34.53360000     -73.31960000
C      -46.45760000     -34.78040000     -72.06760000
C      -47.05810000     -35.70420000     -72.84790000
C      -47.03780000     -34.58800000     -70.75570000
H      -46.86670000     -35.90240000     -73.87290000
C      -48.14330000     -35.38680000     -70.60500000
C      -46.91770000     -33.63800000     -69.65900000
C      -47.88260000     -33.86410000     -68.69270000
S      -48.52110000     -36.30150000     -72.00210000
S      -49.03680000     -35.02830000     -69.15150000
H      -48.00390000     -33.39200000     -67.70540000
