40
Properties=species:S:1:pos:R:3 #=T CELL(abcABC):=T 1.889726e+02=T 90.00000=T Traj:=T positionsangstrom=T Step:=T 0=T Bead:=T pbc="F F F"
C      -43.38970000     -35.22840000     -73.69790000
C      -42.60140000     -34.47150000     -72.79400000
C      -42.54240000     -34.83330000     -71.45090000
C      -43.24570000     -36.00110000     -71.04130000
C      -43.99540000     -36.75260000     -71.96430000
C      -44.01450000     -36.37310000     -73.31430000
H      -43.45820000     -34.92930000     -74.69220000
H      -42.17090000     -34.10900000     -70.69630000
H      -44.54310000     -37.61200000     -71.60680000
H      -44.55910000     -36.95550000     -74.06370000
C      -43.13890000     -36.48650000     -69.61660000
H      -42.05840000     -36.79450000     -69.39330000
H      -43.76590000     -37.35060000     -69.55930000
C      -41.85460000     -33.16260000     -73.24870000
H      -41.55530000     -32.52770000     -72.36880000
H      -40.92370000     -33.26370000     -73.82050000
S      -43.40860000     -35.05360000     -68.41430000
S      -43.03010000     -32.16620000     -74.28550000
C      -45.04310000     -34.46290000     -68.94570000
H      -45.27360000     -34.97390000     -69.85800000
H      -45.83290000     -34.57560000     -68.18730000
C      -44.43170000     -31.82790000     -73.10590000
H      -44.91740000     -30.94040000     -73.44420000
H      -44.01560000     -31.41640000     -72.15500000
C      -45.45220000     -32.94450000     -72.93570000
H      -45.67090000     -33.36410000     -73.95970000
H      -44.96480000     -33.74140000     -72.45040000
C      -45.03460000     -32.96390000     -69.28780000
H      -44.41290000     -32.83090000     -70.22000000
H      -44.54920000     -32.44200000     -68.44840000
C      -46.37080000     -32.36200000     -69.50790000
C      -47.29050000     -32.03430000     -68.51700000
C      -47.00490000     -32.18540000     -70.85090000
H      -47.17280000     -32.07020000     -67.40830000
C      -48.25740000     -31.63010000     -70.73240000
C      -46.72630000     -32.45150000     -72.28090000
C      -47.88150000     -32.32830000     -73.04270000
S      -48.80380000     -31.40060000     -69.12550000
S      -49.26230000     -31.68330000     -72.16740000
H      -47.88300000     -32.59090000     -74.13310000
