40
Properties=species:S:1:pos:R:3 #=T CELL(abcABC):=T 1.889726e+02=T 90.00000=T Traj:=T positionsangstrom=T Step:=T 0=T Bead:=T pbc="F F F"
C      -41.27040000     -31.86790000     -70.31790000
C      -42.60510000     -31.35570000     -70.19320000
C      -43.26050000     -30.86530000     -71.36550000
C      -42.66830000     -30.92850000     -72.60280000
C      -41.39480000     -31.50790000     -72.75080000
C      -40.75030000     -31.96370000     -71.59870000
H      -40.65470000     -32.21510000     -69.46100000
H      -44.29240000     -30.54550000     -71.30290000
H      -40.85650000     -31.55000000     -73.68330000
H      -39.75720000     -32.48320000     -71.71010000
C      -43.50270000     -30.62840000     -73.83460000
H      -42.93080000     -30.14640000     -74.68790000
H      -44.32820000     -29.91960000     -73.61380000
C      -43.26700000     -31.37190000     -68.89560000
H      -42.64020000     -30.76580000     -68.16420000
H      -44.24710000     -30.85540000     -68.97320000
S      -44.24770000     -32.10780000     -74.61610000
S      -43.51880000     -33.04470000     -67.98630000
C      -45.46260000     -32.70070000     -73.32240000
H      -45.42270000     -31.95610000     -72.43130000
H      -46.39630000     -32.63820000     -73.84060000
C      -44.70210000     -33.97290000     -69.15360000
H      -45.02570000     -34.82500000     -68.60050000
H      -44.09840000     -34.23800000     -69.99600000
C      -45.92610000     -33.13880000     -69.53030000
H      -46.18940000     -32.47080000     -68.79210000
H      -45.69270000     -32.54840000     -70.45910000
C      -45.30170000     -34.17600000     -72.90390000
H      -44.55300000     -34.29370000     -72.12340000
H      -45.10960000     -34.61240000     -73.88300000
C      -46.55290000     -34.87400000     -72.49800000
C      -47.25360000     -35.73190000     -73.29930000
C      -47.19600000     -34.80720000     -71.16130000
H      -47.11220000     -36.07450000     -74.26110000
C      -48.41780000     -35.49560000     -71.19120000
C      -47.08180000     -33.96950000     -69.99610000
C      -48.14540000     -34.04010000     -69.16500000
S      -48.72460000     -36.40090000     -72.65510000
S      -49.33900000     -35.24990000     -69.76540000
H      -48.16320000     -33.54990000     -68.14920000
