40
Properties=species:S:1:pos:R:3 #=T CELL(abcABC):=T 1.889726e+02=T 90.00000=T Traj:=T positionsangstrom=T Step:=T 0=T Bead:=T pbc="F F F"
C      -41.27480000     -31.88140000     -70.37200000
C      -42.60480000     -31.41070000     -70.23390000
C      -43.35520000     -31.02940000     -71.36890000
C      -42.79670000     -31.21340000     -72.65880000
C      -41.57120000     -31.81130000     -72.81730000
C      -40.79890000     -32.10190000     -71.68660000
H      -40.66720000     -31.91640000     -69.51280000
H      -44.36900000     -30.59910000     -71.21680000
H      -41.12440000     -32.03690000     -73.80080000
H      -39.77580000     -32.44160000     -71.75630000
C      -43.64200000     -30.84950000     -73.79700000
H      -43.03060000     -30.32790000     -74.54840000
H      -44.47400000     -30.09070000     -73.56450000
C      -43.08590000     -31.22380000     -68.85630000
H      -42.35390000     -30.76950000     -68.19800000
H      -43.97380000     -30.52650000     -68.88990000
S      -44.42910000     -32.25160000     -74.75500000
S      -43.57040000     -32.85340000     -67.98930000
C      -45.55990000     -32.87930000     -73.48590000
H      -45.74070000     -32.06470000     -72.85360000
H      -46.50610000     -33.11610000     -74.11530000
C      -44.70350000     -33.78060000     -69.16650000
H      -44.76170000     -34.76690000     -68.76100000
H      -44.10130000     -33.96380000     -70.05970000
C      -45.89230000     -33.02210000     -69.58010000
H      -46.24450000     -32.37330000     -68.74860000
H      -45.62810000     -32.39290000     -70.42480000
C      -45.15510000     -34.20490000     -72.71530000
H      -44.55720000     -33.94310000     -71.88980000
H      -44.45740000     -34.77240000     -73.29860000
C      -46.37270000     -34.95550000     -72.35250000
C      -46.98990000     -35.89970000     -73.18690000
C      -47.22440000     -34.63630000     -71.17230000
H      -46.69130000     -36.28750000     -74.19050000
C      -48.39710000     -35.37110000     -71.18680000
C      -47.03490000     -33.83510000     -69.96070000
C      -48.11170000     -34.02220000     -69.07910000
S      -48.55970000     -36.35880000     -72.57860000
S      -49.36630000     -35.06220000     -69.74050000
H      -48.21960000     -33.39780000     -68.24130000
