40
Properties=species:S:1:pos:R:3 #=T CELL(abcABC):=T 1.889726e+02=T 90.00000=T Traj:=T positionsangstrom=T Step:=T 0=T Bead:=T pbc="F F F"
C      -41.62520000     -32.57760000     -70.56790000
C      -42.56280000     -31.53330000     -70.39850000
C      -43.19140000     -31.00110000     -71.54420000
C      -42.86780000     -31.58320000     -72.79120000
C      -41.94940000     -32.60090000     -72.97060000
C      -41.37290000     -33.15240000     -71.82400000
H      -41.09840000     -32.97550000     -69.73100000
H      -43.86430000     -30.12520000     -71.51360000
H      -41.70410000     -32.95880000     -73.98510000
H      -40.69040000     -33.96040000     -71.88140000
C      -43.61240000     -31.05670000     -73.99340000
H      -42.87750000     -30.64110000     -74.68750000
H      -44.32820000     -30.19860000     -73.79240000
C      -42.88270000     -31.04350000     -68.96440000
H      -41.91760000     -30.63510000     -68.50100000
H      -43.48430000     -30.14030000     -68.98980000
S      -44.39120000     -32.40880000     -74.94510000
S      -43.66230000     -32.32000000     -67.92720000
C      -45.70180000     -32.89080000     -73.86510000
H      -46.29860000     -31.98320000     -73.66310000
H      -46.42980000     -33.47350000     -74.47200000
C      -44.84280000     -33.19710000     -69.15040000
H      -45.17860000     -34.09300000     -68.59570000
H      -44.26150000     -33.65570000     -69.92990000
C      -46.06750000     -32.47290000     -69.68630000
H      -46.49350000     -31.71880000     -68.98290000
H      -45.79690000     -31.85620000     -70.55090000
C      -45.25930000     -33.84190000     -72.69170000
H      -44.89170000     -33.34140000     -71.79640000
H      -44.52680000     -34.52230000     -73.14500000
C      -46.39170000     -34.70560000     -72.25610000
C      -46.95490000     -35.68590000     -73.00010000
C      -47.10590000     -34.47590000     -71.03640000
H      -46.60480000     -35.98560000     -73.94970000
C      -48.14540000     -35.38180000     -70.90450000
C      -47.07840000     -33.53230000     -69.91910000
C      -48.05300000     -33.79120000     -69.01180000
S      -48.32260000     -36.49450000     -72.24130000
S      -49.07740000     -35.16290000     -69.54440000
H      -48.20490000     -33.25280000     -68.09400000
