40
Properties=species:S:1:pos:R:3 #=T CELL(abcABC):=T 1.889726e+02=T 90.00000=T Traj:=T positionsangstrom=T Step:=T 0=T Bead:=T pbc="F F F"
C      -41.31360000     -31.93530000     -70.32020000
C      -42.68120000     -31.48390000     -70.19570000
C      -43.31750000     -30.94180000     -71.30330000
C      -42.64490000     -30.92330000     -72.54340000
C      -41.26390000     -31.27730000     -72.63130000
C      -40.62350000     -31.88310000     -71.51750000
H      -40.76850000     -32.22640000     -69.40720000
H      -44.31250000     -30.50770000     -71.18550000
H      -40.82060000     -31.28350000     -73.60480000
H      -39.58240000     -32.22110000     -71.54430000
C      -43.50210000     -30.50160000     -73.77800000
H      -43.04580000     -29.87160000     -74.51000000
H      -44.35780000     -30.02250000     -73.41720000
C      -43.20160000     -31.35400000     -68.83710000
H      -42.53050000     -30.84760000     -68.15170000
H      -44.11530000     -30.81140000     -68.88300000
S      -44.09370000     -32.04200000     -74.63160000
S      -43.52290000     -33.08820000     -68.09400000
C      -45.56820000     -32.74080000     -73.57440000
H      -45.56620000     -32.02150000     -72.71700000
H      -46.46190000     -32.63930000     -74.12570000
C      -44.72630000     -33.94620000     -69.19670000
H      -45.07220000     -34.82950000     -68.52420000
H      -44.33000000     -34.48870000     -70.05350000
C      -45.96960000     -33.07920000     -69.58870000
H      -46.26560000     -32.31940000     -68.81000000
H      -45.75540000     -32.56630000     -70.56160000
C      -45.36360000     -34.14120000     -72.96710000
H      -44.59200000     -34.08110000     -72.17720000
H      -44.93880000     -34.84750000     -73.63070000
C      -46.63450000     -34.77140000     -72.46760000
C      -47.22380000     -35.68680000     -73.28070000
C      -47.36440000     -34.65960000     -71.24990000
H      -47.07240000     -35.81490000     -74.34700000
C      -48.58610000     -35.44670000     -71.24400000
C      -47.10010000     -34.04590000     -69.95570000
C      -48.04800000     -34.31850000     -69.04600000
S      -48.72240000     -36.46280000     -72.64090000
S      -49.34220000     -35.32060000     -69.70150000
H      -48.16700000     -33.87190000     -68.03660000
