40
Properties=species:S:1:pos:R:3 #=T CELL(abcABC):=T 1.889726e+02=T 90.00000=T Traj:=T positionsangstrom=T Step:=T 0=T Bead:=T pbc="F F F"
C      -41.36190000     -32.02950000     -70.40750000
C      -42.67070000     -31.49370000     -70.27290000
C      -43.37140000     -31.12280000     -71.42550000
C      -42.78920000     -31.35890000     -72.67200000
C      -41.48660000     -31.90890000     -72.84440000
C      -40.78410000     -32.24610000     -71.69850000
H      -40.92380000     -32.44210000     -69.51680000
H      -44.34900000     -30.61440000     -71.32960000
H      -41.01640000     -32.08790000     -73.76790000
H      -39.78170000     -32.75940000     -71.74220000
C      -43.66310000     -30.89980000     -73.87030000
H      -43.07560000     -30.31330000     -74.62100000
H      -44.46470000     -30.27260000     -73.61680000
C      -43.23140000     -31.24270000     -68.87200000
H      -42.48160000     -30.61460000     -68.31600000
H      -44.04750000     -30.59670000     -68.95460000
S      -44.33700000     -32.31670000     -74.87550000
S      -43.52990000     -32.76440000     -67.97240000
C      -45.70500000     -32.90660000     -73.68550000
H      -46.00400000     -32.03800000     -72.98140000
H      -46.54180000     -33.28120000     -74.37790000
C      -44.76320000     -33.68200000     -69.03930000
H      -45.30070000     -34.42060000     -68.35260000
H      -44.23230000     -34.25270000     -69.75890000
C      -45.94110000     -32.84540000     -69.71070000
H      -46.26850000     -32.17470000     -68.89110000
H      -45.53960000     -32.20950000     -70.49420000
C      -45.17770000     -34.09930000     -72.86480000
H      -44.62220000     -33.60730000     -72.00930000
H      -44.53350000     -34.74090000     -73.49040000
C      -46.42170000     -34.85070000     -72.34830000
C      -47.01470000     -35.86840000     -73.14110000
C      -47.11300000     -34.62950000     -71.07950000
H      -46.65210000     -36.14020000     -74.16100000
C      -48.21310000     -35.44840000     -70.99950000
C      -47.13390000     -33.66020000     -70.01170000
C      -48.26490000     -33.72190000     -69.14160000
S      -48.49980000     -36.42560000     -72.41080000
S      -49.30920000     -35.06160000     -69.63590000
H      -48.40260000     -33.22610000     -68.19880000
