40
Properties=species:S:1:pos:R:3 #=T CELL(abcABC):=T 1.889726e+02=T 90.00000=T Traj:=T positionsangstrom=T Step:=T 0=T Bead:=T pbc="F F F"
C      -41.16650000     -31.78000000     -70.22050000
C      -42.50020000     -31.40500000     -70.09390000
C      -43.26140000     -30.98830000     -71.16520000
C      -42.68730000     -30.96640000     -72.47030000
C      -41.41930000     -31.51960000     -72.67680000
C      -40.64450000     -31.76440000     -71.53790000
H      -40.66420000     -32.25600000     -69.35720000
H      -44.33270000     -30.76180000     -71.05960000
H      -41.01730000     -31.54230000     -73.70030000
H      -39.59810000     -31.91210000     -71.61070000
C      -43.52090000     -30.61720000     -73.65590000
H      -42.93660000     -30.12720000     -74.44980000
H      -44.40230000     -29.94830000     -73.38830000
C      -43.24370000     -31.56870000     -68.78360000
H      -42.66380000     -31.10190000     -68.00630000
H      -44.17730000     -30.90030000     -68.80800000
S      -44.15190000     -32.17570000     -74.56230000
S      -43.58870000     -33.18510000     -68.11070000
C      -45.66260000     -32.59260000     -73.65420000
H      -46.02210000     -31.83650000     -73.03690000
H      -46.49450000     -32.81830000     -74.39710000
C      -44.70600000     -33.88790000     -69.38600000
H      -44.97490000     -34.81750000     -68.91490000
H      -44.25230000     -34.06340000     -70.36940000
C      -46.03130000     -32.97670000     -69.58160000
H      -46.31670000     -32.48340000     -68.61640000
H      -45.72540000     -32.22800000     -70.23090000
C      -45.43600000     -33.91200000     -72.87820000
H      -44.60070000     -33.77750000     -72.10930000
H      -44.93530000     -34.56210000     -73.61910000
C      -46.63090000     -34.70660000     -72.43570000
C      -47.20160000     -35.56400000     -73.29870000
C      -47.29970000     -34.69360000     -71.20370000
H      -46.75310000     -35.80630000     -74.28830000
C      -48.43770000     -35.50860000     -71.25090000
C      -47.18820000     -33.90850000     -69.97650000
C      -48.17820000     -34.22000000     -69.10800000
S      -48.66910000     -36.31100000     -72.76900000
S      -49.22640000     -35.46770000     -69.73330000
H      -48.33320000     -33.77280000     -68.12060000
