40
Properties=species:S:1:pos:R:3 #=T CELL(abcABC):=T 1.889726e+02=T 90.00000=T Traj:=T positionsangstrom=T Step:=T 0=T Bead:=T pbc="F F F"
C      -41.24490000     -31.97210000     -70.18930000
C      -42.58260000     -31.64370000     -70.06340000
C      -43.23610000     -31.24380000     -71.22960000
C      -42.62640000     -31.18580000     -72.50620000
C      -41.28380000     -31.62790000     -72.65820000
C      -40.65180000     -32.05920000     -71.44420000
H      -40.62740000     -32.08350000     -69.32620000
H      -44.22560000     -30.83260000     -71.18770000
H      -40.70040000     -31.59520000     -73.50680000
H      -39.61270000     -32.40080000     -71.55530000
C      -43.45640000     -30.62900000     -73.58310000
H      -42.83810000     -29.95290000     -74.27440000
H      -44.31610000     -30.09060000     -73.18250000
C      -43.18930000     -31.45360000     -68.72440000
H      -42.55460000     -30.76180000     -68.10970000
H      -44.16210000     -30.96970000     -68.80180000
S      -44.17950000     -32.03190000     -74.73300000
S      -43.61970000     -33.01930000     -67.76290000
C      -45.76530000     -32.66220000     -74.06310000
H      -46.43700000     -31.88600000     -73.73470000
H      -46.28640000     -33.08690000     -74.87850000
C      -44.64040000     -33.96230000     -69.03580000
H      -44.83660000     -34.98380000     -68.72240000
H      -44.03080000     -34.08680000     -69.92090000
C      -45.87510000     -33.20750000     -69.34080000
H      -46.16440000     -32.77340000     -68.43990000
H      -45.66530000     -32.35840000     -70.03910000
C      -45.50190000     -33.72810000     -72.97130000
H      -45.09380000     -33.24170000     -72.07860000
H      -44.66580000     -34.38330000     -73.28320000
C      -46.64770000     -34.57760000     -72.54770000
C      -47.16350000     -35.43520000     -73.45820000
C      -47.34910000     -34.48360000     -71.28740000
H      -46.87260000     -35.41590000     -74.46300000
C      -48.42830000     -35.36720000     -71.36810000
C      -47.04980000     -34.11640000     -69.88300000
C      -48.11960000     -34.47940000     -69.05000000
S      -48.68430000     -36.17900000     -72.84970000
S      -49.33070000     -35.42390000     -69.83630000
H      -48.25880000     -34.30640000     -68.05780000
