40
Properties=species:S:1:pos:R:3 #=T CELL(abcABC):=T 1.889726e+02=T 90.00000=T Traj:=T positionsangstrom=T Step:=T 0=T Bead:=T pbc="F F F"
C      -42.99970000     -35.81020000     -73.10250000
C      -42.59120000     -34.56350000     -72.63380000
C      -42.49820000     -34.36180000     -71.30340000
C      -42.76410000     -35.36130000     -70.33430000
C      -43.28090000     -36.56870000     -70.79030000
C      -43.38830000     -36.78330000     -72.16680000
H      -42.99180000     -36.00160000     -74.18640000
H      -42.34960000     -33.34100000     -71.01560000
H      -43.33530000     -37.38560000     -69.95550000
H      -43.68180000     -37.83220000     -72.49940000
C      -42.33510000     -35.08050000     -68.92040000
H      -41.21500000     -35.09180000     -69.04290000
H      -42.58440000     -35.78510000     -68.15440000
C      -42.41550000     -33.58480000     -73.78460000
H      -42.01110000     -32.61050000     -73.48080000
H      -41.59650000     -34.05470000     -74.35970000
S      -42.88660000     -33.43050000     -68.27920000
S      -43.84260000     -33.50260000     -75.02920000
C      -44.72160000     -33.63700000     -68.32100000
H      -45.11900000     -34.52430000     -67.83130000
H      -45.10990000     -32.84400000     -67.61270000
C      -45.16330000     -32.61580000     -73.98290000
H      -45.79260000     -32.07620000     -74.65400000
H      -44.62300000     -31.92690000     -73.41700000
C      -45.87880000     -33.54130000     -73.05820000
H      -46.16380000     -34.40040000     -73.73550000
H      -45.16090000     -33.93870000     -72.44070000
C      -45.24730000     -33.52130000     -69.68270000
H      -45.59050000     -34.51590000     -70.09630000
H      -44.48060000     -33.15080000     -70.36220000
C      -46.45890000     -32.59010000     -69.82170000
C      -47.15380000     -31.95340000     -68.77680000
C      -47.20260000     -32.47630000     -71.04840000
H      -46.71870000     -31.94690000     -67.76300000
C      -48.38550000     -31.76500000     -70.86560000
C      -47.06880000     -32.87410000     -72.41480000
C      -48.11570000     -32.43600000     -73.24260000
S      -48.60390000     -31.20760000     -69.26020000
S      -49.43120000     -31.73120000     -72.25230000
H      -48.17240000     -32.58510000     -74.34580000
