40
Properties=species:S:1:pos:R:3 #=T CELL(abcABC):=T 1.889726e+02=T 90.00000=T Traj:=T positionsangstrom=T Step:=T 0=T Bead:=T pbc="F F F"
C      -43.26040000     -35.97090000     -72.98210000
C      -42.56070000     -34.79290000     -72.65850000
C      -42.19430000     -34.69260000     -71.28510000
C      -42.62400000     -35.63170000     -70.33430000
C      -43.26600000     -36.84130000     -70.69120000
C      -43.54340000     -36.99310000     -72.09370000
H      -43.52680000     -36.06360000     -74.03870000
H      -41.57920000     -33.92360000     -70.93620000
H      -43.59310000     -37.54140000     -69.82520000
H      -44.13820000     -37.90060000     -72.43650000
C      -42.24620000     -35.28520000     -68.90360000
H      -41.13850000     -35.19250000     -68.58240000
H      -42.77140000     -36.07090000     -68.27410000
C      -42.21130000     -33.83170000     -73.72780000
H      -41.55850000     -33.03730000     -73.30180000
H      -41.55500000     -34.37220000     -74.44000000
S      -42.83460000     -33.55500000     -68.41950000
S      -43.56850000     -33.13440000     -74.76600000
C      -44.67040000     -33.69260000     -68.67230000
H      -44.91800000     -34.72350000     -68.57270000
H      -45.24540000     -33.18330000     -67.87670000
C      -44.65310000     -32.40050000     -73.37680000
H      -44.74480000     -31.28240000     -73.62800000
H      -44.09380000     -32.54960000     -72.38230000
C      -46.01580000     -33.20550000     -73.26500000
H      -46.26250000     -33.57000000     -74.29180000
H      -45.84930000     -34.05370000     -72.61480000
C      -45.17690000     -33.19930000     -70.02440000
H      -45.16890000     -34.04500000     -70.74940000
H      -44.40710000     -32.43520000     -70.42310000
C      -46.60120000     -32.64850000     -69.97820000
C      -47.40370000     -32.44550000     -68.82860000
C      -47.30120000     -32.26210000     -71.16860000
H      -47.14390000     -32.63160000     -67.76620000
C      -48.58200000     -31.73870000     -70.86720000
C      -47.10270000     -32.47060000     -72.56970000
C      -48.09760000     -31.87450000     -73.22410000
S      -48.99390000     -31.77610000     -69.17460000
S      -49.45340000     -31.22510000     -72.32540000
H      -48.15390000     -31.81030000     -74.34700000
