40
Properties=species:S:1:pos:R:3 #=T CELL(abcABC):=T 1.889726e+02=T 90.00000=T Traj:=T positionsangstrom=T Step:=T 0=T Bead:=T pbc="F F F"
C      -45.77180000     -34.30820000     -75.14720000
C      -46.13920000     -33.03760000     -74.60070000
C      -47.16220000     -33.03430000     -73.61040000
C      -47.86780000     -34.19330000     -73.36360000
C      -47.53470000     -35.44370000     -73.87340000
C      -46.48130000     -35.49860000     -74.80890000
H      -44.89340000     -34.26610000     -75.75610000
H      -47.58890000     -32.10960000     -73.24940000
H      -48.15190000     -36.33320000     -73.65020000
H      -46.28100000     -36.42320000     -75.38440000
C      -49.07590000     -34.12630000     -72.45000000
H      -49.07820000     -35.13300000     -71.97250000
H      -50.06070000     -34.09700000     -73.04360000
C      -45.42340000     -31.77960000     -74.94560000
H      -45.34570000     -31.78660000     -76.01370000
H      -45.82390000     -30.80770000     -74.57410000
S      -49.14360000     -32.74720000     -71.19490000
S      -43.70930000     -31.77640000     -74.34990000
C      -47.96180000     -33.48250000     -69.94050000
H      -48.23530000     -33.09660000     -68.95810000
H      -48.18580000     -34.54310000     -69.87000000
C      -43.68150000     -32.75690000     -72.73120000
H      -42.81750000     -33.39620000     -72.79780000
H      -44.59930000     -33.36120000     -72.68530000
C      -43.54530000     -31.78940000     -71.49180000
H      -42.74540000     -31.06540000     -71.78730000
H      -44.54150000     -31.33550000     -71.21110000
C      -46.56350000     -33.10490000     -70.26630000
H      -46.55190000     -32.04680000     -70.38050000
H      -46.43410000     -33.52290000     -71.37510000
C      -45.50380000     -33.52290000     -69.27010000
C      -45.79030000     -34.26490000     -68.12940000
C      -44.04180000     -33.21860000     -69.41910000
H      -46.75150000     -34.48330000     -67.66770000
C      -43.35390000     -33.81780000     -68.29190000
C      -43.14030000     -32.58630000     -70.33540000
C      -41.85110000     -32.76600000     -69.94430000
S      -44.37360000     -34.56010000     -67.10100000
S      -41.56660000     -33.76790000     -68.53800000
H      -41.04230000     -32.35070000     -70.56020000
