40
Properties=species:S:1:pos:R:3 #=T CELL(abcABC):=T 1.889726e+02=T 90.00000=T Traj:=T positionsangstrom=T Step:=T 0=T Bead:=T pbc="F F F"
C      -43.26700000     -35.96680000     -73.03590000
C      -42.60790000     -34.76370000     -72.69100000
C      -42.20820000     -34.49300000     -71.37350000
C      -42.51430000     -35.45540000     -70.40470000
C      -43.20350000     -36.60490000     -70.73670000
C      -43.57900000     -36.91470000     -72.08910000
H      -43.34870000     -36.09780000     -74.12690000
H      -41.83260000     -33.54980000     -71.00720000
H      -43.29850000     -37.32000000     -69.91180000
H      -43.96190000     -37.89620000     -72.32460000
C      -42.22860000     -35.26590000     -68.94730000
H      -41.16080000     -35.18440000     -68.70540000
H      -42.52180000     -36.10550000     -68.42480000
C      -42.23460000     -33.67390000     -73.73610000
H      -41.74100000     -32.79720000     -73.35030000
H      -41.52450000     -34.06840000     -74.45370000
S      -42.80470000     -33.68310000     -68.21770000
S      -43.78010000     -33.29200000     -74.77390000
C      -44.66840000     -33.58320000     -68.43720000
H      -45.08440000     -34.53030000     -67.98950000
H      -44.94880000     -32.80420000     -67.67420000
C      -44.82630000     -32.39890000     -73.60270000
H      -45.27690000     -31.62850000     -74.08660000
H      -44.36640000     -31.91020000     -72.77050000
C      -46.06030000     -33.34830000     -73.26150000
H      -46.50200000     -33.75540000     -74.17990000
H      -45.71810000     -34.14020000     -72.65810000
C      -45.08330000     -33.21550000     -69.84680000
H      -44.90180000     -34.02260000     -70.61010000
H      -44.45500000     -32.44670000     -70.19000000
C      -46.57350000     -32.67200000     -69.98150000
C      -47.28880000     -32.37880000     -68.80570000
C      -47.39350000     -32.45810000     -71.17110000
H      -46.95850000     -32.39020000     -67.75210000
C      -48.55270000     -31.80730000     -70.89750000
C      -47.18280000     -32.63850000     -72.56740000
C      -48.09180000     -31.98420000     -73.33270000
S      -48.86610000     -31.62360000     -69.24180000
S      -49.38220000     -31.28100000     -72.34660000
H      -48.15770000     -31.94470000     -74.44420000
