40
Properties=species:S:1:pos:R:3 #=T CELL(abcABC):=T 1.889726e+02=T 90.00000=T Traj:=T positionsangstrom=T Step:=T 0=T Bead:=T pbc="F F F"
C      -47.80150000     -31.06040000     -69.92780000
C      -48.04140000     -32.41810000     -69.74240000
C      -48.51360000     -33.08830000     -70.90810000
C      -48.53570000     -32.57840000     -72.22180000
C      -48.19850000     -31.25130000     -72.38110000
C      -47.82570000     -30.54720000     -71.24510000
H      -47.54570000     -30.51380000     -69.05850000
H      -48.64070000     -34.22010000     -70.96780000
H      -48.27100000     -30.64840000     -73.17930000
H      -47.63000000     -29.49300000     -71.46760000
C      -49.02660000     -33.44550000     -73.34330000
H      -49.74740000     -32.91760000     -74.07470000
H      -49.67500000     -34.22480000     -72.95280000
C      -47.91550000     -33.11820000     -68.43630000
H      -48.69820000     -32.85140000     -67.82550000
H      -47.91290000     -34.18660000     -68.52230000
S      -47.65260000     -34.09850000     -74.40120000
S      -46.33390000     -32.81730000     -67.49310000
C      -46.65160000     -35.01590000     -73.11140000
H      -47.32160000     -35.63040000     -72.52180000
H      -46.08820000     -35.72380000     -73.60960000
C      -45.06270000     -33.44640000     -68.74870000
H      -45.62220000     -34.25720000     -69.31720000
H      -44.32200000     -33.89210000     -68.08310000
C      -44.51740000     -32.42170000     -69.69440000
H      -45.39610000     -32.17720000     -70.34560000
H      -44.35150000     -31.51440000     -69.11520000
C      -45.69990000     -34.18470000     -72.27420000
H      -45.88600000     -34.47620000     -71.19140000
H      -45.84420000     -33.10680000     -72.40170000
C      -44.17920000     -34.37980000     -72.46870000
C      -43.56250000     -35.21420000     -73.39950000
C      -43.22720000     -33.76230000     -71.59080000
H      -43.95940000     -35.94760000     -74.06000000
C      -41.90770000     -34.10330000     -71.93550000
C      -43.28140000     -32.89470000     -70.44460000
C      -42.02250000     -32.64180000     -69.89620000
S      -41.81600000     -35.24510000     -73.24620000
S      -40.78700000     -33.43780000     -70.84160000
H      -41.77720000     -32.29620000     -68.88170000
