40
Properties=species:S:1:pos:R:3 #=T CELL(abcABC):=T 1.889726e+02=T 90.00000=T Traj:=T positionsangstrom=T Step:=T 0=T Bead:=T pbc="F F F"
C      -47.84390000     -31.06570000     -69.83630000
C      -47.88210000     -32.44450000     -69.55990000
C      -48.34790000     -33.31940000     -70.55970000
C      -48.80960000     -32.81060000     -71.75220000
C      -48.68820000     -31.47380000     -72.06680000
C      -48.18170000     -30.58050000     -71.08470000
H      -47.53550000     -30.40320000     -68.99390000
H      -48.56240000     -34.40350000     -70.38200000
H      -49.06890000     -31.10730000     -72.97280000
H      -48.05590000     -29.46910000     -71.27070000
C      -49.28720000     -33.72240000     -72.82010000
H      -50.15620000     -33.26610000     -73.35600000
H      -49.49850000     -34.66650000     -72.37770000
C      -47.48460000     -32.93650000     -68.20940000
H      -48.26870000     -32.59970000     -67.50310000
H      -47.27330000     -34.02460000     -68.10470000
S      -48.08020000     -33.96700000     -74.25000000
S      -45.87620000     -32.15290000     -67.57760000
C      -46.72090000     -34.86700000     -73.40600000
H      -47.20880000     -35.52450000     -72.66240000
H      -46.13800000     -35.33200000     -74.21650000
C      -44.74370000     -32.96220000     -68.80120000
H      -45.18890000     -33.87620000     -69.25070000
H      -43.89980000     -33.26630000     -68.18790000
C      -44.26330000     -32.11510000     -69.98390000
H      -45.09230000     -31.86990000     -70.63040000
H      -43.90690000     -31.18690000     -69.58480000
C      -45.68830000     -33.93200000     -72.68240000
H      -46.06790000     -33.64070000     -71.67840000
H      -45.73410000     -33.02910000     -73.22380000
C      -44.21340000     -34.34340000     -72.64090000
C      -43.73280000     -35.32810000     -73.46240000
C      -43.19810000     -33.81100000     -71.74830000
H      -44.21320000     -35.80960000     -74.25810000
C      -41.91680000     -34.38390000     -72.03130000
C      -43.13030000     -32.81980000     -70.71390000
C      -41.86370000     -32.77580000     -70.12650000
S      -41.99140000     -35.64200000     -73.30300000
S      -40.67300000     -33.86720000     -70.94610000
H      -41.51480000     -32.21320000     -69.29620000
