40
Properties=species:S:1:pos:R:3 #=T CELL(abcABC):=T 1.889726e+02=T 90.00000=T Traj:=T positionsangstrom=T Step:=T 0=T Bead:=T pbc="F F F"
C      -48.00320000     -31.00920000     -70.01230000
C      -48.24920000     -32.38300000     -70.02930000
C      -48.33050000     -33.03180000     -71.26750000
C      -48.21640000     -32.40180000     -72.52280000
C      -47.98160000     -31.02460000     -72.47390000
C      -47.96140000     -30.36160000     -71.23940000
H      -47.92540000     -30.50110000     -69.07350000
H      -48.65100000     -34.09740000     -71.13160000
H      -47.89110000     -30.40940000     -73.46270000
H      -47.51120000     -29.38460000     -71.19140000
C      -48.31660000     -33.11110000     -73.86800000
H      -48.71440000     -32.44020000     -74.66820000
H      -48.85380000     -33.97050000     -73.73730000
C      -48.27430000     -33.20950000     -68.67920000
H      -49.12170000     -32.83070000     -68.16530000
H      -48.36910000     -34.30440000     -68.81320000
S      -46.65230000     -33.80280000     -74.28310000
S      -46.81730000     -32.88750000     -67.61340000
C      -46.63330000     -35.34140000     -73.09940000
H      -47.63160000     -35.54870000     -72.72970000
H      -46.32430000     -36.22320000     -73.66260000
C      -45.53150000     -33.85450000     -68.44020000
H      -46.01970000     -34.64070000     -69.08100000
H      -44.86410000     -34.43220000     -67.77750000
C      -44.68450000     -32.91290000     -69.30150000
H      -45.34540000     -32.37600000     -69.98480000
H      -44.35690000     -32.18580000     -68.59730000
C      -45.73510000     -35.04100000     -71.89280000
H      -45.91560000     -35.90340000     -71.23090000
H      -46.17660000     -34.14090000     -71.39280000
C      -44.26040000     -34.81360000     -72.27680000
C      -43.61110000     -35.14360000     -73.45480000
C      -43.36010000     -34.06380000     -71.31380000
H      -43.92950000     -35.67450000     -74.33570000
C      -42.09280000     -34.00150000     -71.84060000
C      -43.45910000     -33.39660000     -70.05020000
C      -42.24390000     -32.90090000     -69.62920000
S      -41.85570000     -34.64240000     -73.42360000
S      -40.86790000     -33.24940000     -70.79970000
H      -42.09080000     -32.39760000     -68.66380000
