40
Properties=species:S:1:pos:R:3 #=T CELL(abcABC):=T 1.889726e+02=T 90.00000=T Traj:=T positionsangstrom=T Step:=T 0=T Bead:=T pbc="F F F"
C      -48.65530000     -30.97790000     -69.21440000
C      -47.94320000     -32.14090000     -68.96050000
C      -48.01960000     -33.18770000     -69.92080000
C      -48.83500000     -33.07710000     -71.06010000
C      -49.60680000     -31.92960000     -71.20880000
C      -49.44410000     -30.83900000     -70.30190000
H      -48.52860000     -30.16360000     -68.46060000
H      -47.32700000     -33.97160000     -69.84440000
H      -50.11870000     -31.83060000     -72.20000000
H      -49.85570000     -29.80190000     -70.60040000
C      -48.77740000     -34.20720000     -72.06420000
H      -49.77220000     -34.60910000     -72.26850000
H      -48.17130000     -35.03600000     -71.80240000
C      -46.94290000     -32.32320000     -67.82720000
H      -47.31380000     -32.03880000     -66.87930000
H      -46.64720000     -33.39160000     -67.76220000
S      -48.25710000     -33.60210000     -73.69570000
S      -45.41050000     -31.33580000     -68.02340000
C      -46.55560000     -34.14890000     -73.97130000
H      -46.55110000     -35.27220000     -73.96850000
H      -46.30330000     -33.98870000     -75.02530000
C      -44.47750000     -32.48770000     -69.17320000
H      -45.19350000     -33.30420000     -69.34650000
H      -43.80710000     -32.99570000     -68.52550000
C      -43.68990000     -32.05860000     -70.43600000
H      -44.38720000     -31.63580000     -71.17190000
H      -43.01020000     -31.27070000     -70.18240000
C      -45.51840000     -33.58620000     -73.02850000
H      -45.93110000     -33.74460000     -72.05020000
H      -45.49970000     -32.52420000     -73.17190000
C      -44.14740000     -34.24540000     -73.11550000
C      -43.81790000     -35.18640000     -74.00820000
C      -43.07420000     -33.98100000     -72.16810000
H      -44.48940000     -35.42800000     -74.82840000
C      -42.01690000     -34.75980000     -72.37760000
C      -42.85570000     -33.20150000     -70.93300000
C      -41.69680000     -33.51190000     -70.29020000
S      -42.20360000     -35.88420000     -73.76440000
S      -40.82040000     -34.80240000     -71.14210000
H      -41.29700000     -32.94170000     -69.39410000
