40
Properties=species:S:1:pos:R:3 #=T CELL(abcABC):=T 1.889726e+02=T 90.00000=T Traj:=T positionsangstrom=T Step:=T 0=T Bead:=T pbc="F F F"
C      -48.80100000     -31.05190000     -68.90010000
C      -47.98610000     -32.22430000     -68.95090000
C      -48.15690000     -33.15930000     -69.94790000
C      -49.01540000     -32.94000000     -70.99650000
C      -49.75830000     -31.73420000     -70.98000000
C      -49.71220000     -30.80580000     -69.96940000
H      -48.74650000     -30.27820000     -68.14880000
H      -47.54710000     -34.04710000     -70.00480000
H      -50.23210000     -31.34260000     -71.91090000
H      -50.24890000     -29.79280000     -70.11250000
C      -49.01700000     -33.96190000     -72.18670000
H      -50.08520000     -34.18510000     -72.39890000
H      -48.70790000     -34.94170000     -71.87920000
C      -46.88870000     -32.32910000     -67.82450000
H      -47.22910000     -31.96780000     -66.88880000
H      -46.64650000     -33.38870000     -67.80760000
S      -48.19970000     -33.31990000     -73.74120000
S      -45.29980000     -31.41810000     -68.25880000
C      -46.54050000     -34.20460000     -73.83960000
H      -46.69670000     -35.23580000     -73.38400000
H      -46.35870000     -34.24600000     -74.90070000
C      -44.59140000     -32.64190000     -69.51430000
H      -45.42450000     -32.89660000     -70.23930000
H      -44.35010000     -33.54920000     -68.91810000
C      -43.34970000     -32.05280000     -70.26260000
H      -43.75000000     -31.28760000     -71.01200000
H      -42.67010000     -31.63870000     -69.56260000
C      -45.43630000     -33.43640000     -73.04980000
H      -45.82320000     -33.18200000     -72.08250000
H      -45.28660000     -32.47770000     -73.55480000
C      -44.14390000     -34.25690000     -72.98160000
C      -43.93060000     -35.27080000     -73.92050000
C      -42.99610000     -34.04140000     -72.07250000
H      -44.58400000     -35.69180000     -74.74740000
C      -42.04270000     -34.96160000     -72.33550000
C      -42.62610000     -33.22030000     -70.95160000
C      -41.38780000     -33.51860000     -70.49390000
S      -42.37700000     -36.07550000     -73.62060000
S      -40.66650000     -34.85150000     -71.34510000
H      -40.89870000     -32.96960000     -69.61230000
