40
Properties=species:S:1:pos:R:3 #=T CELL(abcABC):=T 1.889726e+02=T 90.00000=T Traj:=T positionsangstrom=T Step:=T 0=T Bead:=T pbc="F F F"
C      -48.15850000     -30.89300000     -69.77480000
C      -47.96790000     -32.17840000     -69.39200000
C      -48.40200000     -33.21840000     -70.23080000
C      -48.91390000     -32.90370000     -71.51110000
C      -48.96070000     -31.56590000     -71.94660000
C      -48.67000000     -30.55670000     -71.05440000
H      -48.04740000     -30.15620000     -69.00760000
H      -48.47140000     -34.23990000     -69.91530000
H      -49.44050000     -31.28240000     -72.91480000
H      -48.82140000     -29.55180000     -71.36840000
C      -49.12100000     -33.95580000     -72.47690000
H      -50.10940000     -33.88910000     -72.83080000
H      -49.02010000     -35.02190000     -72.10680000
C      -47.47160000     -32.49250000     -68.00410000
H      -48.05720000     -31.97690000     -67.16590000
H      -47.62230000     -33.61040000     -67.74360000
S      -48.14970000     -33.86160000     -74.06070000
S      -45.77140000     -32.00220000     -67.63730000
C      -46.57480000     -34.66230000     -73.66210000
H      -46.65640000     -35.75080000     -73.31630000
H      -46.04560000     -34.65720000     -74.66650000
C      -44.60560000     -33.00500000     -68.69850000
H      -45.07840000     -33.92350000     -68.93900000
H      -43.66980000     -33.17870000     -68.18320000
C      -44.20430000     -32.22090000     -69.96550000
H      -45.08050000     -32.02710000     -70.62080000
H      -43.83300000     -31.29450000     -69.53300000
C      -45.59990000     -33.99740000     -72.72940000
H      -45.92230000     -34.17780000     -71.74820000
H      -45.62180000     -32.93710000     -72.99370000
C      -44.12340000     -34.41760000     -72.84470000
C      -43.64690000     -35.28720000     -73.76890000
C      -43.17800000     -33.98220000     -71.75420000
H      -44.25140000     -35.82080000     -74.54810000
C      -41.95920000     -34.57830000     -72.12660000
C      -43.08730000     -33.01050000     -70.70700000
C      -41.81360000     -32.96580000     -70.25740000
S      -41.91900000     -35.68500000     -73.43540000
S      -40.61130000     -33.99710000     -71.19380000
H      -41.51700000     -32.45960000     -69.29760000
