40
Properties=species:S:1:pos:R:3 #=T CELL(abcABC):=T 1.889726e+02=T 90.00000=T Traj:=T positionsangstrom=T Step:=T 0=T Bead:=T pbc="F F F"
C      -45.49560000     -34.20400000     -75.01050000
C      -45.95660000     -32.92970000     -74.55530000
C      -47.09610000     -32.87980000     -73.70820000
C      -47.84190000     -34.06530000     -73.50150000
C      -47.35410000     -35.27350000     -73.96220000
C      -46.11260000     -35.36430000     -74.60490000
H      -44.50120000     -34.37230000     -75.46450000
H      -47.45940000     -31.94850000     -73.37880000
H      -47.73450000     -36.20700000     -73.62780000
H      -45.73370000     -36.32840000     -74.93880000
C      -49.04120000     -33.99540000     -72.60680000
H      -49.13240000     -34.92890000     -72.10000000
H      -49.89760000     -33.96500000     -73.32890000
C      -45.20140000     -31.64550000     -74.78220000
H      -45.08450000     -31.28610000     -75.80420000
H      -45.67740000     -30.81330000     -74.22310000
S      -49.18700000     -32.57960000     -71.39710000
S      -43.30730000     -31.77310000     -74.38260000
C      -48.07970000     -33.29270000     -70.09030000
H      -48.32250000     -32.77290000     -69.14070000
H      -48.32860000     -34.36090000     -69.85060000
C      -43.33630000     -32.85880000     -72.82000000
H      -42.37520000     -33.31830000     -72.91920000
H      -44.09560000     -33.54570000     -72.91480000
C      -43.39860000     -32.09090000     -71.53720000
H      -42.51610000     -31.47120000     -71.52820000
H      -44.32320000     -31.50370000     -71.43540000
C      -46.59240000     -33.07390000     -70.41350000
H      -46.26440000     -32.03940000     -70.56960000
H      -46.37160000     -33.55240000     -71.46300000
C      -45.61700000     -33.64690000     -69.37030000
C      -46.06100000     -34.18420000     -68.18140000
C      -44.19330000     -33.48160000     -69.40020000
H      -47.04970000     -34.52560000     -67.98680000
C      -43.59600000     -34.02220000     -68.28690000
C      -43.19420000     -32.88880000     -70.27460000
C      -41.95770000     -32.96890000     -69.72590000
S      -44.79810000     -34.73250000     -67.13630000
S      -41.88760000     -33.73140000     -68.18810000
H      -41.05710000     -32.73120000     -70.26840000
