40
Properties=species:S:1:pos:R:3 #=T CELL(abcABC):=T 1.889726e+02=T 90.00000=T Traj:=T positionsangstrom=T Step:=T 0=T Bead:=T pbc="F F F"
C      -43.79210000     -36.30140000     -72.77170000
C      -43.31750000     -35.06320000     -73.20220000
C      -42.52810000     -34.27680000     -72.33360000
C      -42.10750000     -34.77960000     -71.09960000
C      -42.59530000     -36.05490000     -70.69040000
C      -43.41720000     -36.71790000     -71.49830000
H      -44.33610000     -36.96310000     -73.45480000
H      -42.22020000     -33.31770000     -72.66020000
H      -42.34950000     -36.48540000     -69.79370000
H      -43.74990000     -37.74750000     -71.13980000
C      -41.30950000     -33.94970000     -70.13700000
H      -40.28510000     -34.02650000     -70.40920000
H      -41.49040000     -34.32970000     -69.08410000
C      -43.67590000     -34.59710000     -74.63950000
H      -43.17230000     -33.60930000     -74.86580000
H      -43.25210000     -35.24950000     -75.36780000
S      -41.90310000     -32.21390000     -69.95770000
S      -45.50850000     -34.40760000     -75.07030000
C      -43.48640000     -32.65470000     -69.17080000
H      -43.41200000     -33.49330000     -68.48110000
H      -43.70020000     -31.71440000     -68.62610000
C      -45.97950000     -33.32180000     -73.66730000
H      -46.80370000     -32.69610000     -74.04150000
H      -45.11990000     -32.63040000     -73.39800000
C      -46.52690000     -34.22580000     -72.48900000
H      -46.96840000     -35.12560000     -72.89400000
H      -45.67500000     -34.54980000     -71.91380000
C      -44.63450000     -33.02030000     -70.16270000
H      -44.50510000     -34.09740000     -70.31130000
H      -44.53610000     -32.56300000     -71.18660000
C      -45.99810000     -32.57830000     -69.69660000
C      -46.25910000     -31.82580000     -68.52780000
C      -47.16760000     -32.66580000     -70.48240000
H      -45.58190000     -31.51740000     -67.77370000
C      -48.31690000     -31.89030000     -69.99130000
C      -47.45660000     -33.32010000     -71.69200000
C      -48.69680000     -32.91940000     -72.17460000
S      -47.82330000     -31.09770000     -68.52720000
S      -49.69550000     -31.93390000     -71.08760000
H      -49.06830000     -33.25090000     -73.11850000
