40
Properties=species:S:1:pos:R:3 #=T CELL(abcABC):=T 1.889726e+02=T 90.00000=T Traj:=T positionsangstrom=T Step:=T 0=T Bead:=T pbc="F F F"
C      -43.85310000     -36.32790000     -72.80360000
C      -43.37980000     -35.02480000     -73.25330000
C      -42.61080000     -34.29820000     -72.43300000
C      -42.15700000     -34.73120000     -71.13740000
C      -42.64450000     -36.01500000     -70.70290000
C      -43.55410000     -36.71650000     -71.46630000
H      -44.50570000     -36.95890000     -73.40520000
H      -42.25660000     -33.37130000     -72.80020000
H      -42.49710000     -36.40380000     -69.71730000
H      -43.86820000     -37.74190000     -71.10820000
C      -41.19060000     -33.88560000     -70.39170000
H      -40.27470000     -33.79350000     -71.04630000
H      -40.75530000     -34.27020000     -69.44690000
C      -43.58960000     -34.47310000     -74.62960000
H      -43.20980000     -33.44160000     -74.67980000
H      -43.10080000     -35.14420000     -75.32250000
S      -41.76580000     -32.20220000     -69.97990000
S      -45.32860000     -34.50360000     -75.05910000
C      -43.45060000     -32.38760000     -69.12880000
H      -43.28330000     -32.86720000     -68.09390000
H      -43.79160000     -31.40310000     -68.82990000
C      -46.20610000     -33.54990000     -73.77080000
H      -47.06820000     -33.06920000     -74.24340000
H      -45.54240000     -32.81400000     -73.27100000
C      -46.78720000     -34.42000000     -72.59650000
H      -47.58460000     -35.09520000     -72.96270000
H      -45.97710000     -35.00980000     -72.17920000
C      -44.61010000     -33.11270000     -69.97130000
H      -44.71850000     -34.17910000     -69.77130000
H      -44.34770000     -33.02670000     -71.03420000
C      -45.97190000     -32.55770000     -69.65330000
C      -46.18740000     -31.70650000     -68.57630000
C      -47.15110000     -32.62130000     -70.51080000
H      -45.60830000     -31.44170000     -67.73190000
C      -48.23210000     -31.86910000     -70.00060000
C      -47.57030000     -33.45870000     -71.59460000
C      -48.83320000     -33.09040000     -71.97600000
S      -47.86090000     -31.08140000     -68.52570000
S      -49.66090000     -31.82300000     -71.01900000
H      -49.32830000     -33.70940000     -72.73500000
