40
Properties=species:S:1:pos:R:3 #=T CELL(abcABC):=T 1.889726e+02=T 90.00000=T Traj:=T positionsangstrom=T Step:=T 0=T Bead:=T pbc="F F F"
C      -43.90390000     -36.14740000     -72.69170000
C      -43.29970000     -34.98700000     -73.25370000
C      -42.27630000     -34.38830000     -72.49940000
C      -42.08510000     -34.81940000     -71.17700000
C      -42.72770000     -35.89150000     -70.59570000
C      -43.59710000     -36.60750000     -71.44310000
H      -44.69180000     -36.66210000     -73.23250000
H      -41.75180000     -33.52970000     -72.93600000
H      -42.48200000     -36.26300000     -69.58870000
H      -44.11140000     -37.44940000     -71.04970000
C      -41.23700000     -34.02880000     -70.10260000
H      -40.16300000     -33.89930000     -70.27350000
H      -41.29990000     -34.50990000     -69.16760000
C      -43.67830000     -34.54710000     -74.65360000
H      -43.29930000     -33.58180000     -74.88450000
H      -43.13170000     -35.22380000     -75.36930000
S      -41.88020000     -32.27350000     -70.08490000
S      -45.45750000     -34.64450000     -75.09210000
C      -43.45700000     -32.34870000     -69.20960000
H      -43.24770000     -32.81020000     -68.26390000
H      -43.76830000     -31.35780000     -69.09400000
C      -46.20650000     -33.47650000     -73.83900000
H      -47.01900000     -32.99890000     -74.40570000
H      -45.56650000     -32.65660000     -73.66580000
C      -46.61460000     -34.14470000     -72.60230000
H      -47.28660000     -34.97700000     -72.94710000
H      -45.75240000     -34.67050000     -72.18800000
C      -44.58420000     -33.05630000     -70.06060000
H      -44.71670000     -34.15350000     -69.88300000
H      -44.35520000     -32.96880000     -71.13320000
C      -45.95790000     -32.48960000     -69.74660000
C      -46.16860000     -31.74710000     -68.62470000
C      -47.11970000     -32.56530000     -70.51770000
H      -45.57660000     -31.60440000     -67.68940000
C      -48.18620000     -31.89670000     -69.99490000
C      -47.50320000     -33.28520000     -71.70890000
C      -48.82290000     -33.04430000     -72.01670000
S      -47.75100000     -31.00240000     -68.55030000
S      -49.73820000     -32.00570000     -70.79710000
H      -49.39180000     -33.60710000     -72.81330000
