40
Properties=species:S:1:pos:R:3 #=T CELL(abcABC):=T 1.889726e+02=T 90.00000=T Traj:=T positionsangstrom=T Step:=T 0=T Bead:=T pbc="F F F"
C      -43.09800000     -35.77540000     -73.80750000
C      -44.46940000     -35.54760000     -73.49290000
C      -44.86660000     -34.18160000     -73.39450000
C      -43.91220000     -33.16930000     -73.52980000
C      -42.55940000     -33.39050000     -73.94580000
C      -42.19020000     -34.72810000     -74.10400000
H      -42.73150000     -36.78310000     -73.72080000
H      -45.89760000     -33.90760000     -73.21240000
H      -41.82290000     -32.58630000     -74.04190000
H      -41.15880000     -34.93380000     -74.32690000
C      -44.43130000     -31.83340000     -73.31510000
H      -45.21880000     -31.88260000     -72.56870000
H      -45.05370000     -31.34220000     -74.10580000
C      -45.33750000     -36.73840000     -73.38030000
H      -45.94370000     -37.01690000     -74.25590000
H      -44.74180000     -37.61420000     -73.31110000
S      -43.36830000     -30.38050000     -72.67850000
S      -46.63570000     -36.67090000     -72.03280000
C      -42.74470000     -31.15480000     -71.01710000
H      -41.72600000     -31.46270000     -71.25090000
H      -42.62000000     -30.33500000     -70.33820000
C      -45.66040000     -36.68630000     -70.49920000
H      -44.77150000     -37.27210000     -70.67020000
H      -46.28820000     -37.12520000     -69.78240000
C      -45.23900000     -35.30160000     -70.04960000
H      -44.52590000     -35.30260000     -69.14050000
H      -44.72060000     -34.82190000     -70.93140000
C      -43.54290000     -32.30090000     -70.46380000
H      -42.88960000     -32.64820000     -69.61000000
H      -43.63890000     -33.13020000     -71.11160000
C      -44.95940000     -31.90470000     -69.86460000
C      -45.25800000     -30.58600000     -69.50090000
C      -46.09830000     -32.84120000     -69.73160000
H      -44.57220000     -29.72920000     -69.48670000
C      -47.24280000     -32.20280000     -69.37830000
C      -46.26590000     -34.32740000     -69.73640000
C      -47.58340000     -34.61130000     -69.47980000
S      -46.95050000     -30.46890000     -69.08840000
S      -48.64720000     -33.20950000     -69.15930000
H      -48.07390000     -35.55440000     -69.40960000
