40
Properties=species:S:1:pos:R:3 #=T CELL(abcABC):=T 1.889726e+02=T 90.00000=T Traj:=T positionsangstrom=T Step:=T 0=T Bead:=T pbc="F F F"
C      -43.22140000     -35.64240000     -74.18600000
C      -44.59420000     -35.48630000     -73.78690000
C      -45.19090000     -34.23240000     -73.70410000
C      -44.46730000     -33.05060000     -73.96890000
C      -43.12420000     -33.18410000     -74.29260000
C      -42.57400000     -34.47890000     -74.56910000
H      -42.88710000     -36.65540000     -74.41970000
H      -46.32640000     -34.19530000     -73.57090000
H      -42.55500000     -32.23530000     -74.47140000
H      -41.58150000     -34.59220000     -74.97250000
C      -45.05810000     -31.74400000     -73.56480000
H      -45.87740000     -31.84130000     -72.72500000
H      -45.43020000     -31.35210000     -74.39410000
C      -45.40690000     -36.69680000     -73.43340000
H      -46.15230000     -36.96230000     -74.20960000
H      -44.77070000     -37.56470000     -73.20510000
S      -43.95960000     -30.45130000     -72.90120000
S      -46.61130000     -36.56530000     -72.06500000
C      -42.95380000     -31.35920000     -71.61210000
H      -42.06890000     -31.78960000     -72.00840000
H      -42.59640000     -30.59090000     -70.95760000
C      -45.54800000     -36.65280000     -70.54540000
H      -44.71330000     -37.38800000     -70.67160000
H      -46.06830000     -37.13610000     -69.66000000
C      -45.01130000     -35.25810000     -70.09680000
H      -44.21070000     -35.34480000     -69.32340000
H      -44.51560000     -34.78840000     -70.99230000
C      -43.65640000     -32.42630000     -70.90080000
H      -42.97160000     -33.14690000     -70.29810000
H      -43.93480000     -33.18600000     -71.63260000
C      -44.76450000     -32.01950000     -70.01380000
C      -45.09630000     -30.67720000     -69.78140000
C      -45.78920000     -32.91250000     -69.40940000
H      -44.46070000     -29.83160000     -70.07830000
C      -46.82050000     -32.20160000     -68.80640000
C      -45.97650000     -34.32710000     -69.44020000
C      -47.10220000     -34.69270000     -68.73300000
S      -46.59630000     -30.45620000     -68.87150000
S      -48.02730000     -33.32070000     -68.15400000
H      -47.54850000     -35.66910000     -68.79100000
