40
Properties=species:S:1:pos:R:3 #=T CELL(abcABC):=T 1.889726e+02=T 90.00000=T Traj:=T positionsangstrom=T Step:=T 0=T Bead:=T pbc="F F F"
C      -43.42150000     -35.68230000     -74.41890000
C      -44.63640000     -35.51380000     -73.73570000
C      -45.20210000     -34.26490000     -73.55400000
C      -44.46450000     -33.10360000     -73.93900000
C      -43.24980000     -33.24720000     -74.61980000
C      -42.72490000     -34.56390000     -74.85480000
H      -43.02140000     -36.74460000     -74.44850000
H      -46.10280000     -34.02210000     -72.89580000
H      -42.67370000     -32.38220000     -74.87560000
H      -41.74410000     -34.71930000     -75.39520000
C      -45.17290000     -31.72540000     -73.60590000
H      -46.05430000     -31.95310000     -72.99780000
H      -45.58740000     -31.29940000     -74.54690000
C      -45.44840000     -36.75000000     -73.44760000
H      -46.06110000     -36.92440000     -74.35500000
H      -44.88740000     -37.64290000     -73.25470000
S      -44.02220000     -30.44530000     -72.84300000
S      -46.66410000     -36.46790000     -72.03390000
C      -42.88590000     -31.39720000     -71.73330000
H      -42.14510000     -31.98220000     -72.36290000
H      -42.37540000     -30.56220000     -71.18660000
C      -45.55290000     -36.66720000     -70.51760000
H      -44.82250000     -37.34610000     -70.92940000
H      -46.09980000     -37.12880000     -69.79150000
C      -44.92150000     -35.33140000     -70.02700000
H      -44.16010000     -35.64920000     -69.22410000
H      -44.24590000     -34.84960000     -70.74910000
C      -43.54900000     -32.31500000     -70.66730000
H      -42.81730000     -32.46370000     -69.90910000
H      -43.71590000     -33.23210000     -71.19740000
C      -44.87940000     -31.89380000     -70.14770000
C      -45.17760000     -30.60470000     -69.81150000
C      -45.79600000     -32.84870000     -69.53680000
H      -44.67090000     -29.71750000     -70.14370000
C      -46.79700000     -32.21710000     -68.84280000
C      -45.86970000     -34.29900000     -69.48030000
C      -46.91340000     -34.68630000     -68.70190000
S      -46.62390000     -30.48360000     -68.80700000
S      -47.77980000     -33.36940000     -68.00020000
H      -47.14330000     -35.69350000     -68.40710000
