40
Properties=species:S:1:pos:R:3 #=T CELL(abcABC):=T 1.889726e+02=T 90.00000=T Traj:=T positionsangstrom=T Step:=T 0=T Bead:=T pbc="F F F"
C      -42.93740000     -35.70800000     -73.72250000
C      -44.36740000     -35.54570000     -73.45900000
C      -44.81640000     -34.23500000     -73.22920000
C      -43.95680000     -33.19280000     -73.64950000
C      -42.59240000     -33.34430000     -73.92730000
C      -42.05320000     -34.63280000     -73.94220000
H      -42.62320000     -36.66840000     -73.86520000
H      -45.86540000     -34.02740000     -72.93270000
H      -42.03400000     -32.39350000     -74.08470000
H      -41.00500000     -34.75370000     -74.19560000
C      -44.54550000     -31.75630000     -73.63150000
H      -45.61560000     -31.77130000     -73.39800000
H      -44.49660000     -31.33080000     -74.66090000
C      -45.38710000     -36.71360000     -73.56690000
H      -45.89030000     -36.69740000     -74.57440000
H      -44.73010000     -37.59060000     -73.54930000
S      -43.58070000     -30.53240000     -72.57580000
S      -46.70790000     -36.60470000     -72.17490000
C      -42.75900000     -31.33390000     -71.18360000
H      -41.90510000     -31.85560000     -71.52230000
H      -42.36770000     -30.49220000     -70.54060000
C      -45.73670000     -36.76620000     -70.63260000
H      -44.83850000     -37.40550000     -70.71520000
H      -46.41310000     -37.29570000     -69.91830000
C      -45.26880000     -35.40380000     -70.10470000
H      -44.60360000     -35.56790000     -69.28280000
H      -44.61460000     -34.95320000     -70.80050000
C      -43.57020000     -32.33960000     -70.35660000
H      -43.04860000     -32.95590000     -69.60180000
H      -43.64540000     -33.19340000     -71.12750000
C      -44.97500000     -31.86560000     -69.90060000
C      -45.27570000     -30.51170000     -69.65190000
C      -46.04320000     -32.81550000     -69.63320000
H      -44.63720000     -29.69230000     -69.80610000
C      -47.16010000     -32.13410000     -69.21090000
C      -46.21020000     -34.29990000     -69.83430000
C      -47.51950000     -34.56630000     -69.54340000
S      -46.88170000     -30.39940000     -68.97010000
S      -48.53930000     -33.21430000     -68.96640000
H      -48.02320000     -35.51840000     -69.51950000
