40
Properties=species:S:1:pos:R:3 #=T CELL(abcABC):=T 1.889726e+02=T 90.00000=T Traj:=T positionsangstrom=T Step:=T 0=T Bead:=T pbc="F F F"
C      -44.17770000     -35.85360000     -73.70330000
C      -43.39520000     -35.92440000     -72.55220000
C      -43.91270000     -36.58650000     -71.42720000
C      -45.26810000     -37.03670000     -71.42670000
C      -46.05770000     -36.97840000     -72.60810000
C      -45.42670000     -36.49490000     -73.71440000
H      -43.90370000     -35.36850000     -74.61080000
H      -43.32630000     -36.57480000     -70.53840000
H      -47.00900000     -37.50730000     -72.70550000
H      -45.92090000     -36.47150000     -74.67850000
C      -45.90140000     -37.34460000     -70.08900000
H      -45.10100000     -37.17560000     -69.34520000
H      -46.36030000     -38.43860000     -69.99080000
C      -42.00390000     -35.33260000     -72.42330000
H      -41.21830000     -36.04720000     -72.37130000
H      -41.86500000     -34.64750000     -73.26680000
S      -47.34090000     -36.20250000     -69.62620000
S      -41.76600000     -34.20000000     -71.01160000
C      -46.49630000     -34.46700000     -69.70090000
H      -46.74160000     -33.99780000     -68.68830000
H      -45.40200000     -34.67670000     -69.68970000
C      -42.58790000     -32.72820000     -71.70240000
H      -42.26660000     -32.63960000     -72.78420000
H      -42.13840000     -31.80490000     -71.20040000
C      -44.07700000     -32.79360000     -71.72210000
H      -44.43460000     -33.45770000     -72.53950000
H      -44.42960000     -33.33560000     -70.81740000
C      -47.10520000     -33.65210000     -70.85750000
H      -48.10430000     -33.86070000     -71.01120000
H      -46.59170000     -33.84080000     -71.78650000
C      -47.13220000     -32.13230000     -70.67210000
C      -48.18530000     -31.37130000     -70.20220000
C      -46.13240000     -31.25680000     -71.21360000
H      -49.02740000     -31.85730000     -69.69870000
C      -46.44320000     -29.87090000     -71.19840000
C      -44.86850000     -31.46380000     -71.84250000
C      -44.23520000     -30.31490000     -72.14870000
S      -48.02170000     -29.62060000     -70.41560000
S      -45.15430000     -28.81990000     -71.79740000
H      -43.43320000     -30.28670000     -72.87090000
