40
Properties=species:S:1:pos:R:3 #=T CELL(abcABC):=T 1.889726e+02=T 90.00000=T Traj:=T positionsangstrom=T Step:=T 0=T Bead:=T pbc="F F F"
C      -45.52630000     -34.23400000     -74.91380000
C      -45.94870000     -32.95320000     -74.50620000
C      -47.12950000     -32.88370000     -73.72110000
C      -47.91800000     -34.02880000     -73.53210000
C      -47.47230000     -35.27700000     -73.99320000
C      -46.21680000     -35.36830000     -74.57600000
H      -44.52730000     -34.34580000     -75.42380000
H      -47.33190000     -31.99740000     -73.16680000
H      -47.99310000     -36.24510000     -73.86790000
H      -45.75580000     -36.28520000     -74.92900000
C      -49.17020000     -33.87570000     -72.75840000
H      -49.62740000     -34.71380000     -72.23580000
H      -49.93970000     -33.43670000     -73.39730000
C      -45.04210000     -31.74380000     -74.72480000
H      -45.02950000     -31.50840000     -75.74510000
H      -45.47170000     -30.80640000     -74.27670000
S      -49.12790000     -32.57400000     -71.42730000
S      -43.25850000     -31.87440000     -74.37090000
C      -48.02200000     -33.33550000     -70.14200000
H      -48.37890000     -32.80800000     -69.26530000
H      -48.18240000     -34.39680000     -69.99730000
C      -43.16490000     -32.77750000     -72.72560000
H      -42.18570000     -33.32570000     -72.56810000
H      -43.80730000     -33.72330000     -72.70220000
C      -43.60280000     -32.03850000     -71.49560000
H      -43.14080000     -31.00540000     -71.49830000
H      -44.68210000     -31.90160000     -71.58280000
C      -46.51950000     -33.05220000     -70.45500000
H      -46.43160000     -32.01530000     -70.56660000
H      -46.22460000     -33.56030000     -71.37320000
C      -45.61590000     -33.57700000     -69.33530000
C      -46.10640000     -34.31150000     -68.23860000
C      -44.20090000     -33.30600000     -69.23190000
H      -47.17540000     -34.52170000     -67.88630000
C      -43.57690000     -33.96970000     -68.21750000
C      -43.24300000     -32.70090000     -70.16790000
C      -41.96630000     -32.87750000     -69.74330000
S      -44.74920000     -34.73820000     -67.16280000
S      -41.89330000     -33.85970000     -68.28210000
H      -41.06950000     -32.38570000     -70.25370000
