40
Properties=species:S:1:pos:R:3 #=T CELL(abcABC):=T 1.889726e+02=T 90.00000=T Traj:=T positionsangstrom=T Step:=T 0=T Bead:=T pbc="F F F"
C      -43.88750000     -35.21480000     -74.03590000
C      -43.18430000     -35.35200000     -72.86530000
C      -43.82560000     -35.90580000     -71.77090000
C      -45.10880000     -36.37640000     -71.80410000
C      -45.81890000     -36.21220000     -72.99420000
C      -45.23840000     -35.62510000     -74.13510000
H      -43.29190000     -34.67080000     -74.83960000
H      -43.27510000     -36.06760000     -70.82150000
H      -46.79590000     -36.63840000     -73.06130000
H      -45.69410000     -35.44000000     -75.12170000
C      -45.82410000     -37.03380000     -70.59150000
H      -45.42490000     -37.96620000     -70.35670000
H      -46.74290000     -37.22630000     -71.02300000
C      -41.76000000     -34.88310000     -72.68900000
H      -41.18760000     -35.79980000     -72.78570000
H      -41.48880000     -34.28300000     -73.57320000
S      -45.75380000     -36.02390000     -69.06050000
S      -41.57210000     -34.08710000     -71.02210000
C      -46.77650000     -34.54820000     -69.32230000
H      -47.67260000     -34.50710000     -68.59560000
H      -46.18130000     -33.68330000     -68.96120000
C      -42.64680000     -32.53680000     -71.19300000
H      -42.56510000     -32.22450000     -72.25170000
H      -41.96960000     -31.87450000     -70.64220000
C      -44.03520000     -32.78780000     -70.73170000
H      -44.46420000     -33.57610000     -71.30910000
H      -44.04030000     -33.13050000     -69.68390000
C      -47.10820000     -34.14630000     -70.73750000
H      -47.87070000     -34.91380000     -71.12170000
H      -46.25170000     -34.30560000     -71.33700000
C      -47.45060000     -32.69620000     -70.91500000
C      -48.74680000     -32.21590000     -70.96390000
C      -46.38900000     -31.66670000     -71.08450000
H      -49.63300000     -32.83090000     -71.13550000
C      -47.00180000     -30.43830000     -71.35520000
C      -44.94070000     -31.57290000     -70.89080000
C      -44.50080000     -30.31820000     -71.20790000
S      -48.80190000     -30.46290000     -71.31790000
S      -45.81740000     -29.13640000     -71.44800000
H      -43.49370000     -29.94250000     -71.05640000
