40
Properties=species:S:1:pos:R:3 #=T CELL(abcABC):=T 1.889726e+02=T 90.00000=T Traj:=T positionsangstrom=T Step:=T 0=T Bead:=T pbc="F F F"
C      -43.81550000     -35.56720000     -73.88290000
C      -43.28170000     -35.59080000     -72.64770000
C      -43.92550000     -36.17490000     -71.54480000
C      -45.21160000     -36.66180000     -71.75390000
C      -45.86220000     -36.62930000     -73.01940000
C      -45.15370000     -35.95430000     -74.09170000
H      -43.37460000     -35.08520000     -74.65620000
H      -43.50250000     -35.93790000     -70.56990000
H      -46.85380000     -37.05450000     -73.15620000
H      -45.62290000     -35.84030000     -75.13420000
C      -45.95680000     -37.25080000     -70.55250000
H      -45.43920000     -38.18750000     -70.22100000
H      -47.02310000     -37.43860000     -70.69160000
C      -41.84420000     -35.01470000     -72.56640000
H      -41.16080000     -35.89410000     -72.41650000
H      -41.56530000     -34.47360000     -73.49930000
S      -45.76670000     -36.18050000     -69.09820000
S      -41.55270000     -33.79030000     -71.17760000
C      -46.46730000     -34.49570000     -69.33810000
H      -47.13940000     -34.43680000     -68.49890000
H      -45.63440000     -33.89230000     -69.10480000
C      -42.68200000     -32.34030000     -71.55180000
H      -42.92920000     -32.34640000     -72.63310000
H      -42.16850000     -31.37840000     -71.33890000
C      -44.01990000     -32.59600000     -70.85940000
H      -44.51750000     -33.49550000     -71.21560000
H      -43.86650000     -32.85280000     -69.82350000
C      -47.09670000     -34.13010000     -70.71630000
H      -47.98630000     -34.65020000     -70.74030000
H      -46.45540000     -34.45180000     -71.55510000
C      -47.36460000     -32.61490000     -70.93430000
C      -48.69570000     -32.16040000     -71.05320000
C      -46.38160000     -31.53470000     -71.01170000
H      -49.62230000     -32.70070000     -70.74710000
C      -47.00000000     -30.27600000     -71.24510000
C      -44.95060000     -31.39980000     -71.01900000
C      -44.54290000     -30.09160000     -71.15780000
S      -48.73580000     -30.41170000     -71.38560000
S      -45.87530000     -28.94490000     -71.32460000
H      -43.54840000     -29.79130000     -71.37220000
