40
Properties=species:S:1:pos:R:3 #=T CELL(abcABC):=T 1.889726e+02=T 90.00000=T Traj:=T positionsangstrom=T Step:=T 0=T Bead:=T pbc="F F F"
C      -43.11260000     -35.69710000     -73.85960000
C      -44.41680000     -35.54740000     -73.42870000
C      -44.94530000     -34.27130000     -73.27780000
C      -44.04530000     -33.16090000     -73.39570000
C      -42.68430000     -33.32590000     -73.75100000
C      -42.22970000     -34.61390000     -73.99080000
H      -42.82770000     -36.73100000     -74.15500000
H      -45.96260000     -34.10580000     -73.02960000
H      -42.07400000     -32.44510000     -73.86500000
H      -41.24210000     -34.79030000     -74.35050000
C      -44.49560000     -31.73250000     -73.27020000
H      -45.41820000     -31.79680000     -72.66390000
H      -44.59800000     -31.41070000     -74.30180000
C      -45.34670000     -36.80790000     -73.32100000
H      -45.97870000     -36.68860000     -74.19160000
H      -44.76900000     -37.76300000     -73.23810000
S      -43.30210000     -30.57230000     -72.63870000
S      -46.58340000     -36.64800000     -72.03150000
C      -42.74880000     -31.14130000     -70.83730000
H      -41.66820000     -31.48440000     -70.97890000
H      -42.76630000     -30.40620000     -70.09080000
C      -45.64340000     -36.60940000     -70.41980000
H      -44.85230000     -37.42180000     -70.47080000
H      -46.38820000     -37.07740000     -69.70950000
C      -45.16460000     -35.21730000     -70.00070000
H      -44.73750000     -35.27430000     -69.05220000
H      -44.43540000     -34.88770000     -70.71500000
C      -43.48480000     -32.29600000     -70.20830000
H      -43.03760000     -32.33150000     -69.17990000
H      -43.45800000     -33.20490000     -70.78960000
C      -44.94910000     -31.85390000     -69.95210000
C      -45.37550000     -30.51220000     -69.76670000
C      -46.03180000     -32.82750000     -69.79060000
H      -44.73560000     -29.56670000     -69.68700000
C      -47.22310000     -32.22890000     -69.35850000
C      -46.22500000     -34.22590000     -69.84040000
C      -47.55020000     -34.57200000     -69.68240000
S      -47.06310000     -30.49960000     -69.25450000
S      -48.55640000     -33.26630000     -69.27180000
H      -47.97900000     -35.53800000     -69.68030000
