40
Properties=species:S:1:pos:R:3 #=T CELL(abcABC):=T 1.889726e+02=T 90.00000=T Traj:=T positionsangstrom=T Step:=T 0=T Bead:=T pbc="F F F"
C      -43.82140000     -35.21320000     -73.91110000
C      -43.22300000     -35.53680000     -72.70750000
C      -43.97730000     -36.18840000     -71.70680000
C      -45.31850000     -36.45870000     -71.90790000
C      -45.89830000     -36.16460000     -73.09470000
C      -45.15740000     -35.67290000     -74.20940000
H      -43.24420000     -34.90250000     -74.79340000
H      -43.40310000     -36.41060000     -70.82110000
H      -46.89470000     -36.42010000     -73.09660000
H      -45.66440000     -35.50920000     -75.20410000
C      -46.13500000     -36.90190000     -70.72400000
H      -45.89490000     -37.90980000     -70.32060000
H      -47.31740000     -36.89270000     -70.83480000
C      -41.73710000     -35.17840000     -72.47880000
H      -41.06850000     -35.99900000     -72.18630000
H      -41.25860000     -34.63940000     -73.32840000
S      -45.72000000     -35.97610000     -69.09750000
S      -41.52970000     -34.10540000     -70.97180000
C      -46.69590000     -34.40570000     -69.19130000
H      -47.56870000     -34.56080000     -68.63180000
H      -46.08510000     -33.68660000     -68.71350000
C      -42.51440000     -32.59320000     -71.37400000
H      -42.45320000     -32.37130000     -72.42450000
H      -42.11550000     -31.71550000     -70.85290000
C      -44.00100000     -32.73940000     -70.99070000
H      -44.30080000     -33.63970000     -71.52470000
H      -44.01540000     -33.01570000     -69.91430000
C      -47.05120000     -34.18720000     -70.66800000
H      -47.96160000     -34.79200000     -70.88840000
H      -46.15430000     -34.54810000     -71.25060000
C      -47.40380000     -32.69460000     -70.96360000
C      -48.67600000     -32.20730000     -71.08500000
C      -46.40880000     -31.61520000     -71.09440000
H      -49.56770000     -32.74300000     -70.90920000
C      -47.02680000     -30.35070000     -71.16580000
C      -44.91680000     -31.53480000     -71.16160000
C      -44.55790000     -30.26950000     -71.40650000
S      -48.76200000     -30.41560000     -71.19730000
S      -45.81760000     -29.04930000     -71.38950000
H      -43.46420000     -29.99230000     -71.51230000
