40
Properties=species:S:1:pos:R:3 #=T CELL(abcABC):=T 1.889726e+02=T 90.00000=T Traj:=T positionsangstrom=T Step:=T 0=T Bead:=T pbc="F F F"
C      -45.35230000     -34.43640000     -74.57710000
C      -45.74250000     -33.07200000     -74.40400000
C      -46.98580000     -32.81550000     -73.88150000
C      -47.87800000     -33.91120000     -73.47430000
C      -47.57960000     -35.18820000     -73.94010000
C      -46.37860000     -35.43480000     -74.61450000
H      -44.43340000     -34.63400000     -74.99320000
H      -47.28840000     -31.80090000     -73.58820000
H      -48.32310000     -35.97220000     -73.76910000
H      -46.21570000     -36.39120000     -75.13200000
C      -49.21750000     -33.75230000     -72.81970000
H      -49.60750000     -34.70340000     -72.49400000
H      -49.91770000     -33.26610000     -73.50090000
C      -44.86170000     -31.88870000     -74.72720000
H      -44.93560000     -31.69020000     -75.79510000
H      -45.03660000     -30.94730000     -74.31080000
S      -49.22170000     -32.66670000     -71.39590000
S      -43.04790000     -32.23480000     -74.43390000
C      -48.02530000     -33.33850000     -70.26230000
H      -48.39480000     -33.20190000     -69.24270000
H      -48.00580000     -34.40160000     -70.39450000
C      -43.13570000     -32.88320000     -72.67450000
H      -42.11940000     -33.23200000     -72.43770000
H      -43.78560000     -33.77110000     -72.60800000
C      -43.46060000     -31.84010000     -71.49810000
H      -42.77240000     -30.98680000     -71.60140000
H      -44.51700000     -31.50950000     -71.61940000
C      -46.61440000     -32.78760000     -70.42450000
H      -46.59870000     -31.67740000     -70.38800000
H      -46.11680000     -32.88700000     -71.37160000
C      -45.65980000     -33.39990000     -69.36290000
C      -46.17790000     -34.21100000     -68.34250000
C      -44.22820000     -33.21820000     -69.29880000
H      -47.10880000     -34.76330000     -68.30400000
C      -43.70310000     -33.99680000     -68.22420000
C      -43.22800000     -32.53760000     -70.12580000
C      -41.96760000     -32.68840000     -69.62860000
S      -44.93910000     -34.79450000     -67.29280000
S      -41.93670000     -33.72190000     -68.16840000
H      -41.00570000     -32.17500000     -70.01780000
