40
Properties=species:S:1:pos:R:3 #=T CELL(abcABC):=T 1.889726e+02=T 90.00000=T Traj:=T positionsangstrom=T Step:=T 0=T Bead:=T pbc="F F F"
C      -45.43040000     -30.81050000     -68.57510000
C      -46.67580000     -31.30120000     -69.14410000
C      -47.04750000     -31.00380000     -70.45410000
C      -46.18660000     -30.08960000     -71.14860000
C      -45.10200000     -29.46040000     -70.56050000
C      -44.69280000     -29.86240000     -69.28520000
H      -45.09130000     -31.21090000     -67.62390000
H      -47.83800000     -31.60950000     -70.97380000
H      -44.60380000     -28.68890000     -71.03890000
H      -43.78900000     -29.46780000     -68.74670000
C      -46.71500000     -29.69890000     -72.51530000
H      -46.65210000     -28.64210000     -72.68780000
H      -47.76580000     -30.03190000     -72.56550000
C      -47.52950000     -32.17140000     -68.34310000
H      -47.91940000     -31.61120000     -67.48540000
H      -48.47410000     -32.41870000     -68.88260000
S      -45.77560000     -30.42650000     -73.91860000
S      -46.90390000     -33.86790000     -67.67990000
C      -45.68720000     -32.25510000     -73.56420000
H      -46.73840000     -32.59750000     -73.21940000
H      -45.47770000     -32.74870000     -74.56730000
C      -45.84400000     -34.38920000     -69.00750000
H      -45.27010000     -35.28470000     -68.60380000
H      -44.98840000     -33.71230000     -69.28540000
C      -46.49980000     -34.67110000     -70.41770000
H      -47.41860000     -35.17110000     -70.30400000
H      -46.69390000     -33.69910000     -70.89660000
C      -44.62180000     -32.53170000     -72.58640000
H      -45.04910000     -32.32050000     -71.58650000
H      -43.77690000     -31.85490000     -72.65760000
C      -44.06200000     -33.92420000     -72.69020000
C      -42.97290000     -34.19200000     -73.51000000
C      -44.47010000     -35.14320000     -72.05650000
H      -42.40610000     -33.41940000     -73.96370000
C      -43.82750000     -36.33710000     -72.48320000
C      -45.63950000     -35.56920000     -71.30290000
C      -45.72910000     -36.92290000     -71.16920000
S      -42.53710000     -35.96030000     -73.60750000
S      -44.46760000     -37.81270000     -71.94210000
H      -46.51720000     -37.47330000     -70.61210000
