40
Properties=species:S:1:pos:R:3 #=T CELL(abcABC):=T 1.889726e+02=T 90.00000=T Traj:=T positionsangstrom=T Step:=T 0=T Bead:=T pbc="F F F"
C      -43.60240000     -35.91270000     -73.91180000
C      -43.09490000     -35.75410000     -72.54940000
C      -43.94740000     -36.06900000     -71.47410000
C      -45.32600000     -36.50510000     -71.68460000
C      -45.78050000     -36.60390000     -73.04230000
C      -44.91800000     -36.31880000     -74.11070000
H      -43.00740000     -35.56070000     -74.83120000
H      -43.63460000     -35.89390000     -70.42260000
H      -46.79460000     -36.97830000     -73.20800000
H      -45.32350000     -36.43450000     -75.04710000
C      -46.22870000     -36.87670000     -70.54450000
H      -46.13050000     -37.94960000     -70.34020000
H      -47.22020000     -36.73130000     -70.94290000
C      -41.70140000     -35.14170000     -72.45270000
H      -40.99700000     -35.88960000     -72.05670000
H      -41.45260000     -34.90270000     -73.47520000
S      -46.13170000     -36.02650000     -68.92790000
S      -41.44960000     -33.74120000     -71.29940000
C      -46.48530000     -34.29350000     -69.31250000
H      -47.15610000     -33.92990000     -68.53850000
H      -45.51900000     -33.78690000     -69.18480000
C      -42.75620000     -32.51870000     -71.86600000
H      -43.00270000     -32.78590000     -72.92840000
H      -42.37270000     -31.44700000     -71.79720000
C      -43.99650000     -32.58660000     -70.98680000
H      -44.51330000     -33.46810000     -71.24170000
H      -43.72300000     -32.68570000     -69.94480000
C      -46.94630000     -34.10110000     -70.77300000
H      -47.73340000     -34.74390000     -71.11690000
H      -46.17390000     -34.44920000     -71.41370000
C      -47.33950000     -32.62990000     -71.02290000
C      -48.62580000     -32.22160000     -71.01780000
C      -46.36680000     -31.55900000     -71.13180000
H      -49.40650000     -32.93580000     -71.24610000
C      -47.00570000     -30.35840000     -71.31890000
C      -44.85910000     -31.37900000     -71.11380000
C      -44.48530000     -30.09690000     -71.21970000
S      -48.74700000     -30.43360000     -71.10210000
S      -45.92050000     -28.94940000     -71.39440000
H      -43.49370000     -29.67620000     -70.98730000
