40
Properties=species:S:1:pos:R:3 #=T CELL(abcABC):=T 1.889726e+02=T 90.00000=T Traj:=T positionsangstrom=T Step:=T 0=T Bead:=T pbc="F F F"
C      -45.95940000     -30.66000000     -68.86230000
C      -46.98150000     -31.38860000     -69.48400000
C      -47.20180000     -31.23960000     -70.87660000
C      -46.56430000     -30.20570000     -71.57490000
C      -45.52270000     -29.43830000     -70.96710000
C      -45.22330000     -29.71620000     -69.60980000
H      -45.67180000     -30.88410000     -67.88580000
H      -48.02230000     -31.82940000     -71.29410000
H      -45.12090000     -28.70980000     -71.62200000
H      -44.53900000     -29.02150000     -69.16190000
C      -46.89790000     -29.90010000     -72.99760000
H      -46.89810000     -28.79790000     -73.28180000
H      -47.85180000     -30.36090000     -73.36370000
C      -47.96690000     -32.19190000     -68.67420000
H      -48.35070000     -31.48210000     -67.83800000
H      -48.81470000     -32.55250000     -69.30250000
S      -45.68180000     -30.69640000     -74.19580000
S      -47.16800000     -33.61310000     -67.72380000
C      -45.41050000     -32.46820000     -73.63850000
H      -46.36630000     -32.96370000     -73.44950000
H      -45.04060000     -33.02920000     -74.55260000
C      -45.78930000     -34.23910000     -68.87180000
H      -45.19930000     -35.05170000     -68.33870000
H      -45.09860000     -33.41600000     -69.03590000
C      -46.36900000     -34.46380000     -70.26930000
H      -47.38700000     -34.83100000     -70.16680000
H      -46.46770000     -33.53350000     -70.92270000
C      -44.43210000     -32.63970000     -72.52660000
H      -44.92490000     -32.33060000     -71.63870000
H      -43.82150000     -31.74290000     -72.73270000
C      -43.72950000     -33.96100000     -72.46360000
C      -42.60170000     -34.28120000     -73.16500000
C      -44.26080000     -35.15390000     -71.81190000
H      -42.13830000     -33.45300000     -73.73950000
C      -43.57280000     -36.29270000     -72.24540000
C      -45.46990000     -35.46340000     -70.98380000
C      -45.62390000     -36.79250000     -70.79770000
S      -42.09890000     -35.95040000     -73.16350000
S      -44.36700000     -37.76700000     -71.59800000
H      -46.42980000     -37.33310000     -70.24090000
