40
Properties=species:S:1:pos:R:3 #=T CELL(abcABC):=T 1.889726e+02=T 90.00000=T Traj:=T positionsangstrom=T Step:=T 0=T Bead:=T pbc="F F F"
C      -45.49750000     -29.02290000     -71.93300000
C      -44.35430000     -29.88680000     -71.84670000
C      -44.18760000     -30.68700000     -70.71850000
C      -45.06310000     -30.59950000     -69.58360000
C      -46.17470000     -29.72920000     -69.69250000
C      -46.40550000     -29.05000000     -70.90560000
H      -45.81280000     -28.25570000     -72.70410000
H      -43.33730000     -31.37370000     -70.59650000
H      -46.82980000     -29.64840000     -68.94290000
H      -47.30920000     -28.40990000     -71.03220000
C      -44.78410000     -31.30430000     -68.27360000
H      -45.35840000     -30.80890000     -67.45000000
H      -43.74580000     -31.25410000     -67.97860000
C      -43.30240000     -30.02560000     -72.93070000
H      -43.05440000     -28.99790000     -73.28730000
H      -42.40640000     -30.48300000     -72.47730000
S      -45.18400000     -33.14510000     -68.37650000
S      -43.89360000     -31.09540000     -74.29100000
C      -46.94800000     -33.33320000     -68.83770000
H      -47.24180000     -34.11040000     -68.13710000
H      -47.42400000     -32.33990000     -68.59730000
C      -43.88710000     -32.84560000     -73.76160000
H      -42.90260000     -33.15470000     -73.39060000
H      -43.99510000     -33.41550000     -74.66080000
C      -45.04230000     -33.28450000     -72.76200000
H      -45.21110000     -32.72130000     -71.86870000
H      -45.98780000     -33.28660000     -73.39690000
C      -47.24310000     -33.72600000     -70.32550000
H      -46.73970000     -33.10960000     -71.07570000
H      -48.26550000     -33.58290000     -70.53520000
C      -46.92710000     -35.13060000     -70.63650000
C      -47.48240000     -36.22110000     -70.03120000
C      -45.93730000     -35.49820000     -71.69230000
H      -48.32690000     -36.09970000     -69.35750000
C      -45.74650000     -36.88830000     -71.76760000
C      -44.96680000     -34.76600000     -72.50650000
C      -44.09000000     -35.56620000     -73.13780000
S      -46.83320000     -37.70960000     -70.66510000
S      -44.31840000     -37.33370000     -72.75080000
H      -43.45090000     -35.20950000     -73.94950000
