40
Properties=species:S:1:pos:R:3 #=T CELL(abcABC):=T 1.889726e+02=T 90.00000=T Traj:=T positionsangstrom=T Step:=T 0=T Bead:=T pbc="F F F"
C      -48.31600000     -36.29990000     -71.93190000
C      -47.28740000     -35.68620000     -72.67630000
C      -47.48150000     -34.40380000     -73.18570000
C      -48.60040000     -33.69140000     -72.81380000
C      -49.62120000     -34.26760000     -72.03290000
C      -49.48400000     -35.62270000     -71.57300000
H      -48.18230000     -37.34680000     -71.65180000
H      -46.76630000     -33.90390000     -73.87110000
H      -50.44580000     -33.63250000     -71.74580000
H      -50.26580000     -36.19050000     -71.04540000
C      -48.77230000     -32.16310000     -73.11210000
H      -49.74440000     -31.91990000     -73.52680000
H      -48.18020000     -31.80430000     -73.95120000
C      -46.16350000     -36.51320000     -73.17160000
H      -46.49600000     -37.45780000     -73.51930000
H      -45.63460000     -36.04460000     -73.98470000
S      -48.54480000     -31.13180000     -71.65840000
S      -44.93100000     -37.05830000     -71.96680000
C      -46.68650000     -30.76910000     -71.71280000
H      -46.43790000     -30.61050000     -72.74020000
H      -46.54030000     -29.85810000     -71.16760000
C      -44.37210000     -35.56180000     -71.16010000
H      -43.55340000     -35.89420000     -70.43170000
H      -45.11050000     -35.14670000     -70.45470000
C      -43.80690000     -34.49510000     -72.05550000
H      -43.16980000     -34.90610000     -72.84840000
H      -44.59160000     -33.91510000     -72.60660000
C      -45.87810000     -31.96290000     -71.11380000
H      -45.80680000     -32.70000000     -71.93040000
H      -46.52720000     -32.48230000     -70.32900000
C      -44.51500000     -31.69160000     -70.51990000
C      -44.31930000     -30.55080000     -69.68390000
C      -43.24510000     -32.39830000     -70.59510000
H      -45.18470000     -30.00520000     -69.30810000
C      -42.20550000     -31.86920000     -69.77390000
C      -42.93260000     -33.59270000     -71.24440000
C      -41.63600000     -33.98560000     -71.02620000
S      -42.67070000     -30.46880000     -68.92540000
S      -40.83990000     -32.87570000     -69.98590000
H      -41.13800000     -34.95510000     -71.35930000
