40
Properties=species:S:1:pos:R:3 #=T CELL(abcABC):=T 1.889726e+02=T 90.00000=T Traj:=T positionsangstrom=T Step:=T 0=T Bead:=T pbc="F F F"
C      -45.53640000     -29.01680000     -71.85130000
C      -44.48330000     -29.92880000     -71.77520000
C      -44.34700000     -30.64020000     -70.53630000
C      -45.29210000     -30.53130000     -69.47500000
C      -46.32570000     -29.55390000     -69.60700000
C      -46.40030000     -28.88070000     -70.81280000
H      -45.75380000     -28.47610000     -72.74030000
H      -43.50690000     -31.32340000     -70.39310000
H      -46.94910000     -29.26290000     -68.83010000
H      -47.19820000     -28.15050000     -70.93510000
C      -45.06960000     -31.37580000     -68.24470000
H      -45.80560000     -31.21880000     -67.42680000
H      -44.07440000     -31.16900000     -67.94970000
C      -43.49560000     -29.98980000     -72.95840000
H      -43.41300000     -29.00630000     -73.43040000
H      -42.49170000     -30.34690000     -72.63150000
S      -45.16350000     -33.18400000     -68.53190000
S      -43.97270000     -31.16530000     -74.37740000
C      -46.95730000     -33.35260000     -68.80730000
H      -47.41470000     -34.13010000     -68.22510000
H      -47.44730000     -32.39890000     -68.55330000
C      -43.54940000     -32.82480000     -73.63900000
H      -42.70710000     -32.47160000     -72.98780000
H      -43.27350000     -33.56770000     -74.38740000
C      -44.71990000     -33.30030000     -72.65990000
H      -44.58900000     -32.80420000     -71.67870000
H      -45.62530000     -32.87470000     -73.00270000
C      -47.31380000     -33.72250000     -70.24800000
H      -46.88340000     -32.93480000     -70.90180000
H      -48.43560000     -33.62900000     -70.33590000
C      -46.82780000     -35.10630000     -70.66240000
C      -47.54430000     -36.20030000     -70.25250000
C      -45.70350000     -35.45160000     -71.58610000
H      -48.41120000     -36.21820000     -69.50270000
C      -45.59840000     -36.84570000     -71.71070000
C      -44.81340000     -34.83280000     -72.46910000
C      -44.07120000     -35.70120000     -73.22850000
S      -46.72510000     -37.67480000     -70.70540000
S      -44.37200000     -37.39480000     -72.83040000
H      -43.18260000     -35.66780000     -73.77320000
