40
Properties=species:S:1:pos:R:3 #=T CELL(abcABC):=T 1.889726e+02=T 90.00000=T Traj:=T positionsangstrom=T Step:=T 0=T Bead:=T pbc="F F F"
C      -47.57050000     -35.55610000     -74.61110000
C      -47.49470000     -35.24160000     -73.25540000
C      -47.79000000     -33.92950000     -72.82100000
C      -48.04900000     -32.90420000     -73.72020000
C      -48.15220000     -33.22540000     -75.07420000
C      -48.00980000     -34.56290000     -75.49230000
H      -47.20400000     -36.61040000     -74.91880000
H      -47.80500000     -33.72020000     -71.74780000
H      -48.51560000     -32.50870000     -75.86000000
H      -48.15520000     -34.78720000     -76.60550000
C      -48.21680000     -31.49610000     -73.19730000
H      -48.38210000     -31.47430000     -72.11210000
H      -49.05880000     -30.92970000     -73.63210000
C      -47.42760000     -36.26720000     -72.21110000
H      -47.54650000     -35.75130000     -71.25540000
H      -48.11130000     -37.08130000     -72.40970000
S      -46.68620000     -30.52050000     -73.44950000
S      -45.66920000     -37.07680000     -72.09680000
C      -45.73460000     -30.38420000     -71.88130000
H      -44.88970000     -29.76030000     -72.28790000
H      -46.33010000     -29.81110000     -71.12960000
C      -45.05270000     -35.93280000     -70.73860000
H      -44.62870000     -36.42550000     -69.86640000
H      -45.91280000     -35.38410000     -70.30320000
C      -43.97510000     -34.95510000     -71.32620000
H      -43.16270000     -35.47680000     -71.89300000
H      -44.46390000     -34.27300000     -72.06100000
C      -45.15460000     -31.75740000     -71.41200000
H      -44.47130000     -32.28330000     -72.16210000
H      -46.04440000     -32.48550000     -71.30810000
C      -44.42150000     -31.76220000     -70.07770000
C      -44.45700000     -30.75630000     -69.15230000
C      -43.59040000     -32.88350000     -69.66880000
H      -44.95950000     -29.85870000     -69.45660000
C      -42.93300000     -32.57020000     -68.45600000
C      -43.30430000     -34.20430000     -70.19150000
C      -42.35400000     -34.81330000     -69.43030000
S      -43.41720000     -31.07100000     -67.70240000
S      -41.89110000     -33.87120000     -67.97420000
H      -42.07570000     -35.86550000     -69.52370000
