40
Properties=species:S:1:pos:R:3 #=T CELL(abcABC):=T 1.889726e+02=T 90.00000=T Traj:=T positionsangstrom=T Step:=T 0=T Bead:=T pbc="F F F"
C      -44.66500000     -29.16870000     -71.95340000
C      -43.88940000     -30.32150000     -71.93130000
C      -43.80900000     -31.01980000     -70.72740000
C      -44.48620000     -30.71780000     -69.54530000
C      -45.32960000     -29.62720000     -69.65360000
C      -45.37760000     -28.84640000     -70.76330000
H      -44.60920000     -28.53810000     -72.81400000
H      -43.06560000     -31.79260000     -70.67510000
H      -45.79490000     -29.16670000     -68.73790000
H      -46.01880000     -27.94410000     -70.82400000
C      -44.37390000     -31.46530000     -68.23170000
H      -44.80950000     -30.73840000     -67.46410000
H      -43.36850000     -31.73840000     -68.06080000
C      -42.98550000     -30.77670000     -73.13170000
H      -42.26020000     -29.97120000     -73.53150000
H      -42.35300000     -31.61150000     -72.84030000
S      -45.22560000     -33.10220000     -68.19780000
S      -43.87880000     -31.28980000     -74.71510000
C      -46.91650000     -32.85920000     -68.76890000
H      -47.53280000     -33.56820000     -68.24190000
H      -47.23530000     -31.80440000     -68.70880000
C      -44.20480000     -33.05510000     -74.27430000
H      -43.26220000     -33.62480000     -74.04080000
H      -44.64650000     -33.54320000     -75.12140000
C      -45.19410000     -33.30900000     -73.08690000
H      -44.88220000     -32.70920000     -72.23890000
H      -46.12530000     -32.81550000     -73.32490000
C      -47.18730000     -33.21460000     -70.29620000
H      -46.54580000     -32.66060000     -70.95470000
H      -48.22180000     -32.97400000     -70.50240000
C      -46.92210000     -34.75100000     -70.49940000
C      -47.55280000     -35.78380000     -69.79240000
C      -46.05660000     -35.30850000     -71.49590000
H      -48.20560000     -35.67660000     -68.91770000
C      -46.10010000     -36.70310000     -71.45400000
C      -45.33740000     -34.84090000     -72.73960000
C      -44.93870000     -35.89840000     -73.54360000
S      -47.10110000     -37.43050000     -70.20560000
S      -45.17230000     -37.40430000     -72.69950000
H      -44.25230000     -35.97570000     -74.37800000
