40
Properties=species:S:1:pos:R:3 #=T CELL(abcABC):=T 1.889726e+02=T 90.00000=T Traj:=T positionsangstrom=T Step:=T 0=T Bead:=T pbc="F F F"
C      -45.01730000     -29.29360000     -71.89250000
C      -43.87600000     -30.14680000     -71.75360000
C      -43.84280000     -30.94160000     -70.59690000
C      -44.75640000     -30.71850000     -69.48410000
C      -45.72810000     -29.77540000     -69.63820000
C      -45.80630000     -28.97530000     -70.81030000
H      -45.21720000     -28.79670000     -72.87450000
H      -42.99600000     -31.66090000     -70.49900000
H      -46.47560000     -29.51180000     -68.92580000
H      -46.67510000     -28.30280000     -70.95190000
C      -44.54000000     -31.52810000     -68.19070000
H      -44.99280000     -31.07690000     -67.32730000
H      -43.46230000     -31.64690000     -67.85350000
C      -43.08730000     -30.39180000     -73.04820000
H      -42.67130000     -29.52880000     -73.55430000
H      -42.24390000     -31.11310000     -72.74760000
S      -45.24860000     -33.23480000     -68.37220000
S      -43.95850000     -31.25400000     -74.42820000
C      -47.02290000     -32.87360000     -68.89460000
H      -47.75060000     -33.54090000     -68.37480000
H      -47.27680000     -31.81020000     -68.65680000
C      -43.81480000     -33.01180000     -73.92120000
H      -42.85980000     -33.07840000     -73.42500000
H      -43.68190000     -33.61620000     -74.80940000
C      -45.09520000     -33.37670000     -73.01180000
H      -44.88710000     -32.81420000     -72.10000000
H      -45.89090000     -32.78740000     -73.50980000
C      -47.14100000     -33.21510000     -70.38960000
H      -46.44650000     -32.57020000     -70.93570000
H      -48.13170000     -33.04210000     -70.71930000
C      -46.93790000     -34.74360000     -70.72770000
C      -47.32780000     -35.72420000     -69.82990000
C      -46.14870000     -35.36750000     -71.78010000
H      -47.91900000     -35.67320000     -68.95390000
C      -46.02130000     -36.75210000     -71.63460000
C      -45.28150000     -34.83880000     -72.79250000
C      -44.73020000     -35.83230000     -73.53520000
S      -46.83240000     -37.41660000     -70.21930000
S      -45.00390000     -37.40140000     -72.80740000
H      -44.14100000     -35.65090000     -74.35290000
