40
Properties=species:S:1:pos:R:3 #=T CELL(abcABC):=T 1.889726e+02=T 90.00000=T Traj:=T positionsangstrom=T Step:=T 0=T Bead:=T pbc="F F F"
C      -45.28630000     -29.43010000     -71.94370000
C      -44.11100000     -30.11690000     -71.81440000
C      -43.84230000     -30.70190000     -70.51360000
C      -44.67680000     -30.59360000     -69.43400000
C      -45.76970000     -29.76060000     -69.56250000
C      -46.13440000     -29.30650000     -70.79860000
H      -45.61990000     -29.00910000     -72.91380000
H      -43.01350000     -31.34970000     -70.47240000
H      -46.46630000     -29.53250000     -68.74090000
H      -47.10750000     -28.78900000     -70.97460000
C      -44.57610000     -31.41480000     -68.16300000
H      -45.03890000     -30.86710000     -67.34040000
H      -43.56120000     -31.60770000     -67.87580000
C      -43.00980000     -30.34500000     -72.83770000
H      -42.62940000     -29.34350000     -73.11450000
H      -42.16960000     -30.89140000     -72.45170000
S      -45.27280000     -33.08810000     -68.47740000
S      -43.72690000     -31.17260000     -74.42590000
C      -46.99660000     -32.83910000     -68.99050000
H      -47.58970000     -33.30680000     -68.26930000
H      -47.18400000     -31.71370000     -68.99020000
C      -43.96570000     -32.97570000     -74.03290000
H      -42.94870000     -33.36520000     -73.68260000
H      -44.31410000     -33.41760000     -74.95910000
C      -45.06020000     -33.28350000     -73.00490000
H      -45.01380000     -32.75210000     -72.04730000
H      -46.09970000     -33.02050000     -73.27720000
C      -47.32830000     -33.37870000     -70.47480000
H      -46.88770000     -32.65640000     -71.20350000
H      -48.46960000     -33.35870000     -70.64050000
C      -46.87790000     -34.88040000     -70.63840000
C      -47.43690000     -35.89800000     -69.90500000
C      -45.92600000     -35.37730000     -71.57920000
H      -48.01320000     -35.75910000     -69.04790000
C      -45.77780000     -36.75080000     -71.48840000
C      -45.13890000     -34.84130000     -72.66720000
C      -44.56240000     -35.81850000     -73.42030000
S      -46.88490000     -37.54270000     -70.31440000
S      -44.97320000     -37.42080000     -72.86780000
H      -43.89820000     -35.65830000     -74.24620000
