40
Properties=species:S:1:pos:R:3 #=T CELL(abcABC):=T 1.889726e+02=T 90.00000=T Traj:=T positionsangstrom=T Step:=T 0=T Bead:=T pbc="F F F"
C      -45.30050000     -29.47440000     -71.99800000
C      -44.07710000     -30.16910000     -71.80400000
C      -43.93070000     -30.75910000     -70.52090000
C      -44.84590000     -30.58120000     -69.44130000
C      -46.01650000     -29.85190000     -69.74260000
C      -46.29790000     -29.31560000     -70.98660000
H      -45.52730000     -28.98700000     -72.92910000
H      -42.97320000     -31.23730000     -70.30470000
H      -46.73320000     -29.64730000     -68.87640000
H      -47.15920000     -28.66850000     -71.12280000
C      -44.68480000     -31.39490000     -68.15550000
H      -45.38760000     -30.97830000     -67.38010000
H      -43.68910000     -31.58060000     -67.77860000
C      -43.08360000     -30.41600000     -72.86100000
H      -42.69080000     -29.41590000     -73.12640000
H      -42.22630000     -30.98240000     -72.52520000
S      -45.14630000     -33.16500000     -68.55650000
S      -43.80150000     -31.12260000     -74.36120000
C      -46.93500000     -32.93510000     -68.93140000
H      -47.50780000     -33.26900000     -68.04730000
H      -47.18130000     -31.87800000     -68.91160000
C      -43.93210000     -32.94640000     -73.90690000
H      -43.02220000     -33.33560000     -73.55890000
H      -44.18580000     -33.40620000     -74.89860000
C      -44.96410000     -33.25210000     -72.83040000
H      -44.50640000     -32.76330000     -71.90750000
H      -45.86910000     -32.76830000     -73.10190000
C      -47.34800000     -33.44110000     -70.38580000
H      -46.86450000     -32.84730000     -71.10750000
H      -48.40090000     -33.40490000     -70.50830000
C      -46.94230000     -34.90050000     -70.61510000
C      -47.35230000     -35.92730000     -69.79340000
C      -46.08810000     -35.37910000     -71.73590000
H      -47.94840000     -35.70240000     -68.94150000
C      -45.96720000     -36.76200000     -71.66740000
C      -45.13940000     -34.74170000     -72.61740000
C      -44.37770000     -35.64030000     -73.29730000
S      -46.86190000     -37.56570000     -70.36810000
S      -44.76170000     -37.30980000     -72.82780000
H      -43.65460000     -35.38000000     -74.07270000
