40
Properties=species:S:1:pos:R:3 #=T CELL(abcABC):=T 1.889726e+02=T 90.00000=T Traj:=T positionsangstrom=T Step:=T 0=T Bead:=T pbc="F F F"
C      -48.20880000     -36.00590000     -69.73340000
C      -47.68960000     -35.97790000     -71.01320000
C      -47.93860000     -34.86530000     -71.80470000
C      -48.70960000     -33.81150000     -71.38240000
C      -49.25690000     -33.86260000     -70.08130000
C      -49.09560000     -34.97370000     -69.29340000
H      -48.10370000     -36.80270000     -69.02570000
H      -47.53020000     -34.76800000     -72.85840000
H      -49.75810000     -32.91450000     -69.72000000
H      -49.51980000     -34.92400000     -68.31490000
C      -48.85170000     -32.56910000     -72.29180000
H      -49.87100000     -32.51630000     -72.71540000
H      -48.16240000     -32.57000000     -73.05900000
C      -46.87620000     -37.05140000     -71.53240000
H      -47.43720000     -38.01820000     -71.47250000
H      -46.54990000     -37.03380000     -72.55950000
S      -48.47110000     -30.89920000     -71.35780000
S      -45.24370000     -37.27600000     -70.53820000
C      -46.64370000     -30.69320000     -71.46760000
H      -46.40500000     -30.22760000     -72.33750000
H      -46.42460000     -29.97550000     -70.71100000
C      -44.59010000     -35.54150000     -70.35230000
H      -43.62160000     -35.68220000     -69.73480000
H      -45.28860000     -35.00590000     -69.66900000
C      -44.26370000     -34.96970000     -71.77290000
H      -44.02650000     -35.76720000     -72.46320000
H      -45.12590000     -34.52090000     -72.23860000
C      -45.78000000     -31.92030000     -71.30280000
H      -46.18830000     -32.76620000     -71.92460000
H      -45.91260000     -32.39060000     -70.30240000
C      -44.33880000     -31.50630000     -71.58180000
C      -43.86130000     -30.23840000     -71.57440000
C      -43.26650000     -32.44780000     -71.77910000
H      -44.35950000     -29.32070000     -71.39540000
C      -41.99050000     -31.78110000     -71.87730000
C      -43.13280000     -33.88300000     -71.77110000
C      -41.81020000     -34.24780000     -71.89560000
S      -42.12860000     -30.10010000     -71.74530000
S      -40.71720000     -32.89960000     -71.90800000
H      -41.34410000     -35.22950000     -72.04980000
