40
Properties=species:S:1:pos:R:3 #=T CELL(abcABC):=T 1.889726e+02=T 90.00000=T Traj:=T positionsangstrom=T Step:=T 0=T Bead:=T pbc="F F F"
C      -47.68400000     -36.00000000     -69.99710000
C      -47.45490000     -35.84730000     -71.34390000
C      -47.92930000     -34.71410000     -72.00230000
C      -48.55890000     -33.67450000     -71.25530000
C      -48.77540000     -33.83120000     -69.83640000
C      -48.44990000     -35.04500000     -69.31740000
H      -47.22390000     -36.75740000     -69.41930000
H      -47.91660000     -34.65040000     -73.04520000
H      -49.20560000     -33.10120000     -69.22570000
H      -48.60020000     -35.18870000     -68.24090000
C      -49.06800000     -32.46200000     -72.10130000
H      -50.14110000     -32.52740000     -72.20090000
H      -48.58160000     -32.53900000     -73.06200000
C      -46.65490000     -36.87590000     -72.06320000
H      -47.34230000     -37.66870000     -72.38460000
H      -46.29140000     -36.49480000     -72.98720000
S      -48.62870000     -30.81350000     -71.32910000
S      -45.22300000     -37.50640000     -71.18630000
C      -46.90940000     -30.69130000     -71.79340000
H      -46.76560000     -30.55870000     -72.91340000
H      -46.54030000     -29.69110000     -71.33860000
C      -44.31300000     -35.85400000     -70.80980000
H      -43.33670000     -36.02690000     -70.35540000
H      -44.90880000     -35.38180000     -70.00120000
C      -44.18880000     -34.97830000     -72.03010000
H      -43.99390000     -35.56080000     -72.98990000
H      -45.17080000     -34.48560000     -72.35700000
C      -45.96890000     -31.88150000     -71.39210000
H      -46.15710000     -32.83890000     -71.90650000
H      -46.19690000     -32.10430000     -70.41620000
C      -44.52490000     -31.49070000     -71.48860000
C      -44.09380000     -30.24240000     -71.31100000
C      -43.36520000     -32.49180000     -71.59180000
H      -44.68060000     -29.33500000     -71.34540000
C      -42.18240000     -31.83640000     -71.45410000
C      -43.14870000     -33.92240000     -71.79870000
C      -41.83130000     -34.23110000     -71.56390000
S      -42.38840000     -30.09350000     -71.29580000
S      -40.80790000     -32.87570000     -71.39170000
H      -41.40430000     -35.18390000     -71.72080000
