40
Properties=species:S:1:pos:R:3 #=T CELL(abcABC):=T 1.889726e+02=T 90.00000=T Traj:=T positionsangstrom=T Step:=T 0=T Bead:=T pbc="F F F"
C      -47.71070000     -35.93060000     -69.91110000
C      -47.48580000     -35.81680000     -71.30010000
C      -47.94760000     -34.69570000     -71.98380000
C      -48.68150000     -33.69260000     -71.27180000
C      -48.88910000     -33.82010000     -69.88140000
C      -48.45040000     -34.95810000     -69.20290000
H      -47.53990000     -36.78200000     -69.34590000
H      -47.67760000     -34.55870000     -73.04210000
H      -49.32360000     -33.12350000     -69.26530000
H      -48.79960000     -35.16760000     -68.19420000
C      -49.18110000     -32.50070000     -72.05870000
H      -50.31540000     -32.39870000     -72.04680000
H      -48.91530000     -32.45620000     -73.13380000
C      -46.80750000     -37.00560000     -72.03460000
H      -47.45590000     -37.87420000     -71.90420000
H      -46.56230000     -36.62230000     -73.12750000
S      -48.63570000     -30.91440000     -71.24840000
S      -45.20320000     -37.53810000     -71.04190000
C      -46.77330000     -30.64510000     -71.84600000
H      -46.93150000     -30.37630000     -72.88580000
H      -46.37880000     -29.77500000     -71.42870000
C      -44.49880000     -35.88460000     -70.67210000
H      -43.53030000     -36.06210000     -70.33770000
H      -45.14940000     -35.39740000     -69.96120000
C      -44.33550000     -34.92020000     -71.90530000
H      -44.06240000     -35.61310000     -72.67760000
H      -45.23080000     -34.40440000     -72.09260000
C      -45.91840000     -31.83540000     -71.51910000
H      -45.97270000     -32.60440000     -72.32060000
H      -46.30950000     -32.27800000     -70.55980000
C      -44.42110000     -31.43580000     -71.47330000
C      -43.98530000     -30.15740000     -71.39640000
C      -43.35060000     -32.44710000     -71.54540000
H      -44.61740000     -29.21800000     -71.38900000
C      -42.09010000     -31.78090000     -71.51900000
C      -43.18230000     -33.88500000     -71.70380000
C      -41.88140000     -34.26620000     -71.83250000
S      -42.24510000     -30.06200000     -71.37090000
S      -40.72180000     -32.92570000     -71.58350000
H      -41.56170000     -35.24530000     -71.97510000
