40
Properties=species:S:1:pos:R:3 #=T CELL(abcABC):=T 1.889726e+02=T 90.00000=T Traj:=T positionsangstrom=T Step:=T 0=T Bead:=T pbc="F F F"
C      -48.55880000     -36.35600000     -69.87690000
C      -47.61090000     -36.03980000     -70.86310000
C      -47.73990000     -34.86170000     -71.62200000
C      -48.76730000     -33.97770000     -71.35120000
C      -49.74030000     -34.32400000     -70.40770000
C      -49.65930000     -35.56210000     -69.70500000
H      -48.40820000     -37.31700000     -69.30540000
H      -47.08020000     -34.72750000     -72.46300000
H      -50.56800000     -33.70500000     -70.15490000
H      -50.49260000     -35.81990000     -69.04590000
C      -48.84000000     -32.64240000     -72.10540000
H      -49.91480000     -32.48330000     -72.33970000
H      -48.22820000     -32.74550000     -73.06000000
C      -46.29280000     -36.90230000     -70.95080000
H      -46.54660000     -37.98410000     -70.92520000
H      -45.71620000     -36.71170000     -71.83460000
S      -48.39610000     -31.20210000     -71.04670000
S      -45.24310000     -36.67940000     -69.52560000
C      -46.67820000     -30.67700000     -71.48770000
H      -46.74410000     -30.16160000     -72.42360000
H      -46.47220000     -29.92960000     -70.70010000
C      -44.43180000     -35.05740000     -69.85720000
H      -43.56590000     -34.91870000     -69.21510000
H      -45.11390000     -34.26060000     -69.55110000
C      -44.08970000     -34.86020000     -71.33130000
H      -43.70300000     -35.84220000     -71.73480000
H      -45.03720000     -34.62450000     -71.84280000
C      -45.65080000     -31.86470000     -71.41070000
H      -45.98450000     -32.56850000     -72.13740000
H      -45.64520000     -32.28830000     -70.40730000
C      -44.30910000     -31.42310000     -71.79960000
C      -43.92500000     -30.18160000     -72.16390000
C      -43.20450000     -32.42230000     -71.82330000
H      -44.67150000     -29.38580000     -72.17770000
C      -42.09060000     -31.80590000     -72.26320000
C      -43.00190000     -33.86230000     -71.68440000
C      -41.71540000     -34.28250000     -71.95120000
S      -42.23000000     -30.13260000     -72.72470000
S      -40.70440000     -32.86590000     -72.23720000
H      -41.30570000     -35.32330000     -71.96140000
