40
Properties=species:S:1:pos:R:3 #=T CELL(abcABC):=T 1.889726e+02=T 90.00000=T Traj:=T positionsangstrom=T Step:=T 0=T Bead:=T pbc="F F F"
C      -48.60750000     -36.26000000     -69.74240000
C      -47.60020000     -36.07370000     -70.75600000
C      -47.69610000     -34.92740000     -71.55810000
C      -48.73210000     -34.01940000     -71.43460000
C      -49.67590000     -34.20010000     -70.38360000
C      -49.60990000     -35.29900000     -69.56450000
H      -48.52400000     -37.02410000     -68.97190000
H      -46.89990000     -34.67600000     -72.26590000
H      -50.41460000     -33.45400000     -70.28800000
H      -50.34150000     -35.32590000     -68.74760000
C      -48.74460000     -32.75760000     -72.22970000
H      -49.72300000     -32.72420000     -72.75650000
H      -48.02210000     -32.75160000     -72.95690000
C      -46.47700000     -37.02400000     -70.74240000
H      -46.87200000     -38.00230000     -70.54350000
H      -46.00100000     -37.23870000     -71.71930000
S      -48.49090000     -31.30050000     -71.07670000
S      -45.20050000     -36.51640000     -69.39710000
C      -46.82850000     -30.89030000     -71.68340000
H      -46.83320000     -30.63280000     -72.76560000
H      -46.35400000     -29.91930000     -71.26090000
C      -44.46390000     -34.92350000     -69.98760000
H      -43.68040000     -34.68110000     -69.28150000
H      -45.20060000     -34.11110000     -69.83250000
C      -43.97350000     -34.93800000     -71.44420000
H      -43.46380000     -35.87120000     -71.63960000
H      -44.80920000     -34.94890000     -72.21420000
C      -45.74060000     -31.99760000     -71.54890000
H      -45.97330000     -32.94130000     -72.15250000
H      -45.73480000     -32.29050000     -70.47580000
C      -44.32860000     -31.53380000     -71.99610000
C      -44.00550000     -30.27480000     -72.37410000
C      -43.15580000     -32.42530000     -71.89270000
H      -44.66770000     -29.49820000     -72.59060000
C      -42.03400000     -31.74070000     -72.22220000
C      -42.92720000     -33.82860000     -71.72310000
C      -41.61050000     -34.23290000     -71.83120000
S      -42.27410000     -30.05390000     -72.51610000
S      -40.65840000     -32.90220000     -72.34910000
H      -41.20620000     -35.20390000     -71.54110000
