40
Properties=species:S:1:pos:R:3 #=T CELL(abcABC):=T 1.889726e+02=T 90.00000=T Traj:=T positionsangstrom=T Step:=T 0=T Bead:=T pbc="F F F"
C      -48.49870000     -36.10530000     -69.82210000
C      -47.69630000     -35.92820000     -70.95810000
C      -47.88710000     -34.82460000     -71.76820000
C      -48.78230000     -33.80870000     -71.46830000
C      -49.60380000     -33.97690000     -70.33540000
C      -49.43070000     -35.11930000     -69.49040000
H      -48.31320000     -36.91190000     -69.17780000
H      -47.29850000     -34.86860000     -72.62660000
H      -50.38390000     -33.26970000     -70.10640000
H      -50.02060000     -35.16240000     -68.55050000
C      -48.81010000     -32.54900000     -72.26780000
H      -49.75920000     -32.48780000     -72.73050000
H      -48.09790000     -32.66700000     -73.09040000
C      -46.65410000     -36.96730000     -71.28250000
H      -47.11600000     -37.98570000     -71.23070000
H      -46.12410000     -36.93450000     -72.30070000
S      -48.48450000     -31.01250000     -71.24710000
S      -45.30590000     -36.97580000     -70.01920000
C      -46.73240000     -30.66950000     -71.60140000
H      -46.67460000     -30.25140000     -72.61080000
H      -46.43680000     -29.93610000     -70.93850000
C      -44.70250000     -35.21760000     -70.28640000
H      -43.99400000     -35.10750000     -69.50000000
H      -45.51060000     -34.57560000     -69.93950000
C      -44.12930000     -34.96060000     -71.70420000
H      -43.68200000     -35.86630000     -72.05750000
H      -44.96870000     -34.80960000     -72.38920000
C      -45.73780000     -31.89180000     -71.36850000
H      -45.98990000     -32.84330000     -71.83590000
H      -45.86030000     -32.06460000     -70.27160000
C      -44.31830000     -31.57030000     -71.73960000
C      -43.87270000     -30.30410000     -71.77520000
C      -43.18740000     -32.50430000     -71.91780000
H      -44.42070000     -29.35770000     -71.56870000
C      -41.95760000     -31.90000000     -71.89720000
C      -42.96480000     -33.94740000     -71.90060000
C      -41.64120000     -34.32610000     -72.02110000
S      -42.08150000     -30.16670000     -71.81690000
S      -40.56440000     -32.93570000     -72.04240000
H      -41.32490000     -35.33110000     -72.02990000
