40
Properties=species:S:1:pos:R:3 #=T CELL(abcABC):=T 1.889726e+02=T 90.00000=T Traj:=T positionsangstrom=T Step:=T 0=T Bead:=T pbc="F F F"
C      -48.62880000     -36.41770000     -69.99200000
C      -47.59850000     -35.96810000     -70.83090000
C      -47.71870000     -34.78360000     -71.58590000
C      -48.77820000     -33.88090000     -71.28400000
C      -49.81150000     -34.28100000     -70.46980000
C      -49.78870000     -35.54940000     -69.85290000
H      -48.59230000     -37.41050000     -69.52330000
H      -46.85350000     -34.53630000     -72.19060000
H      -50.67790000     -33.62150000     -70.23210000
H      -50.56290000     -35.90520000     -69.18010000
C      -48.91860000     -32.59360000     -71.99400000
H      -49.86960000     -32.39250000     -72.35330000
H      -48.26130000     -32.52600000     -72.88010000
C      -46.41950000     -36.85100000     -71.06770000
H      -46.55910000     -37.96520000     -71.11440000
H      -45.88160000     -36.47970000     -71.89940000
S      -48.51490000     -31.14480000     -70.96830000
S      -45.25900000     -36.73680000     -69.59730000
C      -46.79030000     -30.72140000     -71.49860000
H      -46.83480000     -30.42880000     -72.59880000
H      -46.70000000     -29.82240000     -70.91370000
C      -44.37500000     -35.16900000     -69.84480000
H      -43.37860000     -35.32140000     -69.32690000
H      -44.94670000     -34.41560000     -69.31780000
C      -44.13710000     -34.83850000     -71.29880000
H      -44.05010000     -35.69690000     -71.92490000
H      -45.01280000     -34.35460000     -71.67770000
C      -45.61620000     -31.75790000     -71.25240000
H      -45.90560000     -32.77600000     -71.56310000
H      -45.56030000     -31.94120000     -70.15340000
C      -44.20750000     -31.46010000     -71.83380000
C      -43.81920000     -30.22080000     -72.25840000
C      -43.17530000     -32.46380000     -71.90190000
H      -44.46610000     -29.28800000     -72.18250000
C      -42.00360000     -31.88730000     -72.37680000
C      -42.93060000     -33.86770000     -71.54260000
C      -41.61700000     -34.26220000     -71.70790000
S      -42.15860000     -30.14060000     -72.64070000
S      -40.62690000     -32.92650000     -72.36430000
H      -41.19840000     -35.26630000     -71.81790000
