40
Properties=species:S:1:pos:R:3 #=T CELL(abcABC):=T 1.889726e+02=T 90.00000=T Traj:=T positionsangstrom=T Step:=T 0=T Bead:=T pbc="F F F"
C      -45.40190000     -34.76090000     -74.71540000
C      -45.62550000     -33.38560000     -74.45850000
C      -46.90580000     -33.00740000     -74.04980000
C      -47.83290000     -33.98540000     -73.68100000
C      -47.52460000     -35.35680000     -73.76150000
C      -46.39720000     -35.71010000     -74.51670000
H      -44.47390000     -35.03720000     -75.16890000
H      -47.09660000     -31.96710000     -74.10530000
H      -48.30660000     -36.04850000     -73.46990000
H      -46.19940000     -36.80680000     -74.75740000
C      -49.18740000     -33.61950000     -73.14950000
H      -49.77330000     -34.47800000     -72.84450000
H      -49.81220000     -33.14050000     -73.93220000
C      -44.60730000     -32.38300000     -74.93800000
H      -44.43420000     -32.35670000     -76.07090000
H      -45.13590000     -31.41000000     -74.83260000
S      -49.17210000     -32.30200000     -71.77000000
S      -42.95440000     -32.25400000     -74.26840000
C      -48.01010000     -33.05260000     -70.44900000
H      -48.09960000     -32.28550000     -69.64550000
H      -48.49350000     -33.90260000     -69.97510000
C      -43.05410000     -33.14200000     -72.62710000
H      -42.14150000     -33.66150000     -72.55820000
H      -43.90420000     -33.78960000     -72.71750000
C      -43.34140000     -32.09330000     -71.47330000
H      -42.72300000     -31.21320000     -71.49200000
H      -44.31760000     -31.69050000     -71.56590000
C      -46.56190000     -33.36700000     -70.74450000
H      -46.05950000     -32.50170000     -71.22220000
H      -46.34680000     -34.23090000     -71.40380000
C      -45.77980000     -33.55760000     -69.39840000
C      -46.22090000     -34.17890000     -68.26950000
C      -44.29320000     -33.30580000     -69.30940000
H      -47.23170000     -34.66570000     -68.26340000
C      -43.84020000     -33.63680000     -68.04070000
C      -43.24140000     -32.69510000     -70.11890000
C      -42.01930000     -32.78120000     -69.49250000
S      -44.99060000     -34.42050000     -67.00660000
S      -42.17800000     -33.34730000     -67.83280000
H      -41.06080000     -32.42570000     -69.80510000
