40
Properties=species:S:1:pos:R:3 #=T CELL(abcABC):=T 1.889726e+02=T 90.00000=T Traj:=T positionsangstrom=T Step:=T 0=T Bead:=T pbc="F F F"
C      -49.16120000     -36.29970000     -70.01130000
C      -47.95250000     -36.02040000     -70.69400000
C      -47.93040000     -34.75570000     -71.41610000
C      -49.00390000     -33.89450000     -71.38020000
C      -50.13420000     -34.16030000     -70.63300000
C      -50.21270000     -35.36440000     -70.00490000
H      -49.23330000     -37.19480000     -69.37400000
H      -47.05360000     -34.54390000     -72.01250000
H      -50.99550000     -33.48900000     -70.64880000
H      -51.12120000     -35.48620000     -69.33210000
C      -48.83850000     -32.54400000     -72.06630000
H      -49.71350000     -32.22620000     -72.62290000
H      -48.01530000     -32.52610000     -72.84630000
C      -46.85340000     -36.95930000     -70.87280000
H      -47.14540000     -38.01410000     -70.72310000
H      -46.37010000     -36.98070000     -71.84290000
S      -48.19650000     -31.12460000     -70.98550000
S      -45.35710000     -36.53940000     -69.66490000
C      -46.46930000     -30.76530000     -71.57640000
H      -46.66020000     -30.48490000     -72.63500000
H      -46.09040000     -29.85230000     -71.05530000
C      -44.58720000     -34.96140000     -70.23310000
H      -43.79390000     -34.69710000     -69.54670000
H      -45.34350000     -34.24290000     -70.27580000
C      -43.85370000     -35.12980000     -71.56090000
H      -43.36550000     -36.05780000     -71.55610000
H      -44.54540000     -35.18380000     -72.45950000
C      -45.54810000     -31.89460000     -71.36940000
H      -45.94820000     -32.78810000     -71.85840000
H      -45.66150000     -32.21620000     -70.33320000
C      -44.16050000     -31.56220000     -71.88430000
C      -43.67370000     -30.27540000     -72.07380000
C      -43.04640000     -32.52430000     -71.89650000
H      -44.15710000     -29.33560000     -72.27010000
C      -41.85100000     -31.86770000     -72.16870000
C      -42.86220000     -33.98460000     -71.78330000
C      -41.52550000     -34.30260000     -71.81520000
S      -41.95680000     -30.17740000     -72.22440000
S      -40.52080000     -32.98460000     -72.30070000
H      -41.04890000     -35.25000000     -71.93710000
