40
Properties=species:S:1:pos:R:3 #=T CELL(abcABC):=T 1.889726e+02=T 90.00000=T Traj:=T positionsangstrom=T Step:=T 0=T Bead:=T pbc="F F F"
C      -47.64800000     -35.33060000     -68.84480000
C      -47.07440000     -35.78010000     -70.04820000
C      -47.64040000     -35.27320000     -71.21840000
C      -48.59260000     -34.22560000     -71.18940000
C      -49.01820000     -33.65600000     -69.99470000
C      -48.53780000     -34.29210000     -68.84190000
H      -47.48370000     -35.85590000     -67.89370000
H      -47.18380000     -35.56000000     -72.13300000
H      -49.73420000     -32.85490000     -69.96010000
H      -48.85050000     -33.88990000     -67.91840000
C      -49.06740000     -33.73790000     -72.54070000
H      -50.12080000     -33.87780000     -72.72770000
H      -48.45160000     -34.29420000     -73.29010000
C      -46.01600000     -36.87030000     -70.14530000
H      -46.38570000     -37.84680000     -69.79480000
H      -45.64670000     -36.97960000     -71.19140000
S      -48.65560000     -31.99460000     -72.88030000
S      -44.63310000     -36.62530000     -69.03050000
C      -46.82920000     -32.22170000     -73.01370000
H      -46.61110000     -33.31040000     -73.31040000
H      -46.56800000     -31.48810000     -73.78080000
C      -44.04210000     -34.95780000     -69.58230000
H      -42.98380000     -34.91090000     -69.38670000
H      -44.41510000     -34.22030000     -68.95710000
C      -44.25900000     -34.78010000     -71.07620000
H      -43.99840000     -35.71700000     -71.55340000
H      -45.34760000     -34.60650000     -71.24900000
C      -46.16570000     -31.90210000     -71.66170000
H      -46.19690000     -32.76760000     -70.95210000
H      -46.73330000     -31.12220000     -71.16490000
C      -44.74120000     -31.39770000     -71.87930000
C      -44.36080000     -30.12760000     -72.07090000
C      -43.59180000     -32.31910000     -71.91520000
H      -44.99730000     -29.27060000     -71.86800000
C      -42.44190000     -31.58670000     -72.23200000
C      -43.36180000     -33.72550000     -71.66430000
C      -42.04750000     -33.98610000     -71.89130000
S      -42.65190000     -29.89530000     -72.41020000
S      -41.02160000     -32.62850000     -72.35340000
H      -41.49600000     -34.95000000     -71.77210000
