40
Properties=species:S:1:pos:R:3 #=T CELL(abcABC):=T 1.889726e+02=T 90.00000=T Traj:=T positionsangstrom=T Step:=T 0=T Bead:=T pbc="F F F"
C      -48.60580000     -36.04110000     -69.15820000
C      -47.63480000     -35.97640000     -70.11040000
C      -47.76230000     -35.01780000     -71.12970000
C      -48.78570000     -34.04170000     -71.11960000
C      -49.78610000     -34.14430000     -70.18370000
C      -49.64260000     -35.10830000     -69.15780000
H      -48.55840000     -36.74480000     -68.30200000
H      -46.98270000     -34.97670000     -71.92300000
H      -50.68490000     -33.44820000     -70.21890000
H      -50.49660000     -35.25800000     -68.49300000
C      -49.03540000     -33.15850000     -72.28420000
H      -50.08590000     -33.20430000     -72.47140000
H      -48.51520000     -33.42570000     -73.26010000
C      -46.48830000     -36.89150000     -70.25680000
H      -46.64280000     -37.89960000     -69.77110000
H      -46.27630000     -36.96910000     -71.34010000
S      -48.69200000     -31.34030000     -71.86630000
S      -44.86470000     -36.44660000     -69.39590000
C      -46.87260000     -31.02330000     -72.22540000
H      -46.75240000     -30.84030000     -73.35550000
H      -46.73820000     -30.05750000     -71.72720000
C      -44.39640000     -34.88250000     -70.11510000
H      -43.67330000     -34.40910000     -69.47890000
H      -45.22870000     -34.22280000     -70.03790000
C      -43.89560000     -34.92430000     -71.57850000
H      -43.51080000     -35.97900000     -71.76010000
H      -44.72870000     -34.76290000     -72.30280000
C      -45.84210000     -32.08470000     -71.87050000
H      -46.04810000     -32.93330000     -72.54460000
H      -46.06070000     -32.27800000     -70.83170000
C      -44.31640000     -31.66600000     -71.96370000
C      -44.00820000     -30.36780000     -72.31160000
C      -43.16540000     -32.47950000     -71.99710000
H      -44.61100000     -29.49810000     -72.29400000
C      -41.95650000     -31.74570000     -72.09690000
C      -42.88390000     -33.86800000     -71.86220000
C      -41.52170000     -34.20400000     -71.96360000
S      -42.22580000     -30.07300000     -72.41060000
S      -40.63330000     -32.78350000     -72.31500000
H      -41.12420000     -35.19310000     -71.86470000
