40
Properties=species:S:1:pos:R:3 #=T CELL(abcABC):=T 1.889726e+02=T 90.00000=T Traj:=T positionsangstrom=T Step:=T 0=T Bead:=T pbc="F F F"
C      -45.26550000     -34.74280000     -74.73490000
C      -45.59130000     -33.38330000     -74.51310000
C      -46.84420000     -33.04330000     -74.01610000
C      -47.76610000     -34.00100000     -73.62150000
C      -47.44190000     -35.33850000     -73.88490000
C      -46.17420000     -35.73250000     -74.39000000
H      -44.27410000     -35.03430000     -75.04990000
H      -47.06320000     -32.03420000     -73.67050000
H      -48.16600000     -36.10250000     -73.54300000
H      -46.00380000     -36.72910000     -74.80910000
C      -49.05290000     -33.57280000     -72.98560000
H      -49.47530000     -34.43490000     -72.47150000
H      -49.76870000     -33.18800000     -73.73610000
C      -44.68540000     -32.34640000     -75.14830000
H      -44.64860000     -32.47370000     -76.21820000
H      -45.07520000     -31.36380000     -74.91960000
S      -49.01310000     -32.27030000     -71.66250000
S      -42.95970000     -32.38830000     -74.35380000
C      -48.02930000     -32.92270000     -70.30020000
H      -48.08920000     -32.21790000     -69.52040000
H      -48.44380000     -33.87110000     -70.02290000
C      -43.03150000     -33.16360000     -72.67890000
H      -42.03520000     -33.54710000     -72.48080000
H      -43.68080000     -34.08830000     -72.63830000
C      -43.36360000     -32.15290000     -71.51520000
H      -42.64480000     -31.31810000     -71.62240000
H      -44.41680000     -31.74490000     -71.69950000
C      -46.57420000     -33.19150000     -70.73340000
H      -46.16800000     -32.30710000     -71.24240000
H      -46.79760000     -33.91790000     -71.53550000
C      -45.76130000     -33.60980000     -69.53380000
C      -46.31310000     -34.24280000     -68.46410000
C      -44.34230000     -33.27960000     -69.33900000
H      -47.31960000     -34.64890000     -68.39520000
C      -43.91500000     -33.63060000     -67.99660000
C      -43.25350000     -32.75340000     -70.10430000
C      -42.06360000     -32.68650000     -69.40080000
S      -45.24030000     -34.39060000     -67.06550000
S      -42.23220000     -33.37710000     -67.75530000
H      -41.24230000     -32.01220000     -69.55890000
