40
Properties=species:S:1:pos:R:3 #=T CELL(abcABC):=T 1.889726e+02=T 90.00000=T Traj:=T positionsangstrom=T Step:=T 0=T Bead:=T pbc="F F F"
C      -47.72650000     -35.46300000     -68.91850000
C      -47.20410000     -35.97550000     -70.09760000
C      -47.69130000     -35.37660000     -71.34120000
C      -48.59980000     -34.32890000     -71.33940000
C      -49.14280000     -33.86530000     -70.11410000
C      -48.65370000     -34.41080000     -68.92010000
H      -47.41470000     -35.85830000     -67.97830000
H      -47.38420000     -35.80750000     -72.28510000
H      -49.83810000     -32.99480000     -70.05670000
H      -48.86020000     -33.95660000     -67.94050000
C      -49.20540000     -33.57710000     -72.48320000
H      -50.23460000     -33.37830000     -72.28570000
H      -49.22770000     -34.16850000     -73.45510000
C      -46.18560000     -37.07810000     -70.08350000
H      -46.62060000     -37.98780000     -69.62930000
H      -45.96940000     -37.48800000     -71.06520000
S      -48.66310000     -31.78360000     -72.76260000
S      -44.81470000     -36.49650000     -69.02250000
C      -46.83810000     -31.80820000     -72.87960000
H      -46.45310000     -32.67400000     -73.45960000
H      -46.46990000     -31.00210000     -73.41830000
C      -44.46400000     -34.77550000     -69.71190000
H      -43.48130000     -34.56860000     -69.17340000
H      -45.29640000     -34.10620000     -69.51550000
C      -44.15770000     -34.81220000     -71.23040000
H      -43.69400000     -35.77270000     -71.45490000
H      -45.03590000     -34.75280000     -71.84140000
C      -46.08300000     -31.75900000     -71.51850000
H      -46.28290000     -32.71380000     -70.97340000
H      -46.35920000     -30.84210000     -70.96520000
C      -44.57210000     -31.49370000     -71.73740000
C      -44.25030000     -30.21920000     -72.04910000
C      -43.42310000     -32.36470000     -71.80410000
H      -44.85020000     -29.37070000     -71.89570000
C      -42.27280000     -31.66470000     -72.16670000
C      -43.16980000     -33.75970000     -71.66890000
C      -41.82160000     -34.06250000     -71.80350000
S      -42.56930000     -30.00130000     -72.56010000
S      -40.85570000     -32.66170000     -72.30280000
H      -41.30860000     -35.01740000     -71.66580000
