40
Properties=species:S:1:pos:R:3 #=T CELL(abcABC):=T 1.889726e+02=T 90.00000=T Traj:=T positionsangstrom=T Step:=T 0=T Bead:=T pbc="F F F"
C      -48.57960000     -36.07600000     -69.38980000
C      -47.66020000     -36.06070000     -70.46410000
C      -47.75070000     -35.02450000     -71.41470000
C      -48.82950000     -34.09520000     -71.33250000
C      -49.79860000     -34.21780000     -70.29230000
C      -49.67220000     -35.17950000     -69.31630000
H      -48.49970000     -36.84420000     -68.66180000
H      -47.12800000     -34.84780000     -72.26970000
H      -50.57750000     -33.45360000     -70.26570000
H      -50.32790000     -35.29090000     -68.46600000
C      -48.87650000     -32.87040000     -72.27110000
H      -49.82860000     -32.69460000     -72.83810000
H      -48.11730000     -32.94550000     -73.04800000
C      -46.46520000     -36.98420000     -70.48430000
H      -46.80610000     -37.98000000     -70.27940000
H      -45.96820000     -36.87770000     -71.45950000
S      -48.45630000     -31.29320000     -71.43110000
S      -45.13820000     -36.55930000     -69.27590000
C      -46.71380000     -30.82950000     -72.04030000
H      -46.90480000     -30.55910000     -73.03910000
H      -46.51730000     -29.98830000     -71.42830000
C      -44.48390000     -34.88250000     -70.02350000
H      -43.71040000     -34.54270000     -69.30260000
H      -45.40490000     -34.28260000     -70.06470000
C      -43.85250000     -34.99710000     -71.49700000
H      -43.34020000     -35.93480000     -71.53320000
H      -44.71930000     -35.03260000     -72.16280000
C      -45.75780000     -32.00810000     -71.77170000
H      -46.09950000     -32.83060000     -72.32570000
H      -45.91640000     -32.47220000     -70.76210000
C      -44.34240000     -31.63180000     -71.94390000
C      -43.98910000     -30.32460000     -72.07900000
C      -43.22710000     -32.56050000     -72.18110000
H      -44.58260000     -29.43790000     -72.05160000
C      -42.06740000     -31.77000000     -72.37530000
C      -42.90380000     -33.91950000     -71.87500000
C      -41.55040000     -34.17090000     -72.03470000
S      -42.27150000     -30.10180000     -72.47200000
S      -40.61370000     -32.72800000     -72.28780000
H      -41.17690000     -35.11920000     -71.89210000
