40
Properties=species:S:1:pos:R:3 #=T CELL(abcABC):=T 1.889726e+02=T 90.00000=T Traj:=T positionsangstrom=T Step:=T 0=T Bead:=T pbc="F F F"
C      -44.42160000     -36.60510000     -71.21960000
C      -44.04640000     -35.97840000     -72.39950000
C      -43.01300000     -35.05870000     -72.48100000
C      -42.48120000     -34.57440000     -71.29710000
C      -42.84060000     -35.18820000     -70.09720000
C      -43.76200000     -36.19540000     -70.06580000
H      -45.26340000     -37.32800000     -71.25650000
H      -42.86080000     -34.69480000     -73.46350000
H      -42.43800000     -34.78330000     -69.14970000
H      -44.00970000     -36.62940000     -69.11060000
C      -41.29130000     -33.57060000     -71.35240000
H      -40.43690000     -33.81610000     -71.95690000
H      -40.81830000     -33.41650000     -70.31570000
C      -44.70140000     -36.42180000     -73.68610000
H      -43.87070000     -36.58610000     -74.30050000
H      -45.23990000     -37.35270000     -73.53610000
S      -41.78300000     -31.92160000     -72.02490000
S      -45.75590000     -35.18760000     -74.56420000
C      -43.11430000     -31.35130000     -70.92430000
H      -43.05970000     -31.75280000     -69.86140000
H      -43.00810000     -30.29420000     -70.89040000
C      -47.17880000     -34.65130000     -73.62280000
H      -47.22960000     -35.32270000     -72.72350000
H      -48.12750000     -34.66600000     -74.15990000
C      -46.84240000     -33.19720000     -73.03090000
H      -45.76830000     -33.22130000     -72.89300000
H      -46.95700000     -32.51250000     -73.84010000
C      -44.44890000     -31.79040000     -71.48700000
H      -44.47920000     -32.89490000     -71.69790000
H      -44.65820000     -31.26050000     -72.40420000
C      -45.57660000     -31.54790000     -70.45450000
C      -45.37630000     -31.10540000     -69.13840000
C      -46.89110000     -32.00050000     -70.62700000
H      -44.53290000     -30.60250000     -68.78370000
C      -47.74020000     -31.89860000     -69.51750000
C      -47.53780000     -32.74790000     -71.72400000
C      -48.78920000     -33.10320000     -71.38370000
S      -46.86140000     -31.15400000     -68.24050000
S      -49.29590000     -32.65760000     -69.66900000
H      -49.51680000     -33.75500000     -71.78660000
