40
Properties=species:S:1:pos:R:3 #=T CELL(abcABC):=T 1.889726e+02=T 90.00000=T Traj:=T positionsangstrom=T Step:=T 0=T Bead:=T pbc="F F F"
C      -47.26260000     -34.85440000     -68.60280000
C      -47.06660000     -35.72190000     -69.70230000
C      -47.75490000     -35.50530000     -70.91280000
C      -48.57240000     -34.36530000     -71.05150000
C      -48.79750000     -33.62550000     -69.92700000
C      -48.12760000     -33.81500000     -68.70740000
H      -46.68510000     -34.87360000     -67.67670000
H      -47.52590000     -36.04510000     -71.81110000
H      -49.40350000     -32.73600000     -69.92180000
H      -48.21670000     -33.19860000     -67.86730000
C      -49.28790000     -33.93400000     -72.32600000
H      -50.26450000     -33.65230000     -72.05350000
H      -49.35670000     -34.80030000     -72.98850000
C      -46.24040000     -37.00050000     -69.59050000
H      -46.51880000     -37.60120000     -68.74090000
H      -46.21970000     -37.49690000     -70.59550000
S      -48.57030000     -32.49870000     -73.15880000
S      -44.49080000     -36.58310000     -69.10240000
C      -46.79260000     -32.77340000     -72.86350000
H      -46.62220000     -33.85830000     -72.82560000
H      -46.21500000     -32.48820000     -73.64960000
C      -44.06810000     -34.85580000     -69.70120000
H      -42.96870000     -34.75740000     -69.24410000
H      -44.62710000     -34.04520000     -69.11910000
C      -44.11110000     -34.77190000     -71.25890000
H      -43.75710000     -35.76620000     -71.64360000
H      -45.14950000     -34.73560000     -71.62020000
C      -46.25200000     -32.07210000     -71.59560000
H      -46.23720000     -32.81260000     -70.74440000
H      -46.97200000     -31.31550000     -71.28930000
C      -44.86820000     -31.45780000     -71.88120000
C      -44.69100000     -30.18990000     -72.29970000
C      -43.61210000     -32.20760000     -71.95380000
H      -45.43450000     -29.41890000     -72.31520000
C      -42.53370000     -31.43270000     -72.30980000
C      -43.20250000     -33.63070000     -71.81480000
C      -41.89040000     -33.83870000     -72.03770000
S      -42.99580000     -29.77220000     -72.58560000
S      -41.00530000     -32.30490000     -72.39490000
H      -41.47270000     -34.83880000     -71.92470000
