40
Properties=species:S:1:pos:R:3 #=T CELL(abcABC):=T 1.889726e+02=T 90.00000=T Traj:=T positionsangstrom=T Step:=T 0=T Bead:=T pbc="F F F"
C      -43.02930000     -36.70770000     -71.74200000
C      -43.64550000     -35.92330000     -72.78730000
C      -43.10130000     -34.64740000     -73.05880000
C      -41.91240000     -34.20910000     -72.47290000
C      -41.29710000     -35.03100000     -71.48890000
C      -41.81730000     -36.27120000     -71.11420000
H      -43.38290000     -37.72980000     -71.68240000
H      -43.49240000     -34.09950000     -73.89370000
H      -40.35310000     -34.74110000     -71.04190000
H      -41.40460000     -36.93360000     -70.40830000
C      -41.28360000     -32.90950000     -72.80830000
H      -41.21270000     -32.80790000     -73.93090000
H      -40.27210000     -32.75420000     -72.33110000
C      -44.81270000     -36.49940000     -73.56110000
H      -44.51440000     -36.94360000     -74.44930000
H      -45.29200000     -37.20440000     -72.86040000
S      -42.34310000     -31.43190000     -72.40410000
S      -46.07340000     -35.28580000     -74.07960000
C      -43.22050000     -31.79520000     -70.80740000
H      -42.70890000     -32.61710000     -70.33710000
H      -43.04300000     -30.95070000     -70.18690000
C      -46.78780000     -34.55540000     -72.54510000
H      -45.97920000     -34.52650000     -71.73150000
H      -47.52450000     -35.28830000     -72.13590000
C      -47.52590000     -33.24870000     -72.75250000
H      -46.97650000     -32.53610000     -73.41230000
H      -48.43730000     -33.50870000     -73.28050000
C      -44.67370000     -32.10420000     -71.10170000
H      -44.71440000     -33.20920000     -71.44070000
H      -45.05900000     -31.48970000     -71.96040000
C      -45.74210000     -32.04060000     -70.03180000
C      -45.52930000     -31.80580000     -68.71390000
C      -47.16200000     -32.26970000     -70.25490000
H      -44.55300000     -31.73500000     -68.31640000
C      -47.90290000     -32.08700000     -69.08870000
C      -47.93140000     -32.72260000     -71.38200000
C      -49.28950000     -32.64470000     -71.06010000
S      -47.02310000     -31.74330000     -67.67710000
S      -49.62760000     -32.24170000     -69.39630000
H      -50.12300000     -32.95940000     -71.72110000
