40
Properties=species:S:1:pos:R:3 #=T CELL(abcABC):=T 1.889726e+02=T 90.00000=T Traj:=T positionsangstrom=T Step:=T 0=T Bead:=T pbc="F F F"
C      -42.70110000     -36.67410000     -71.88010000
C      -43.48730000     -35.89570000     -72.75900000
C      -43.03440000     -34.62770000     -73.08770000
C      -41.81750000     -34.12630000     -72.52630000
C      -41.13620000     -34.86140000     -71.57600000
C      -41.57500000     -36.17280000     -71.26740000
H      -43.11630000     -37.66500000     -71.64970000
H      -43.53160000     -34.07760000     -73.85190000
H      -40.18090000     -34.46240000     -71.17530000
H      -40.96760000     -36.80670000     -70.56270000
C      -41.39510000     -32.74170000     -72.82430000
H      -41.03650000     -32.63420000     -73.85310000
H      -40.57970000     -32.50340000     -72.11560000
C      -44.77470000     -36.35250000     -73.38210000
H      -44.36940000     -36.91960000     -74.21060000
H      -45.26670000     -37.04980000     -72.75820000
S      -42.61930000     -31.46230000     -72.61300000
S      -46.00040000     -35.11400000     -74.03340000
C      -43.36350000     -31.92390000     -71.03960000
H      -42.66760000     -32.55670000     -70.44040000
H      -43.47260000     -30.95870000     -70.54670000
C      -47.30040000     -34.65790000     -72.69040000
H      -46.93400000     -34.94520000     -71.70450000
H      -48.23770000     -35.29090000     -72.84900000
C      -47.79050000     -33.20190000     -72.69840000
H      -47.00700000     -32.55680000     -73.07060000
H      -48.65600000     -33.00780000     -73.35910000
C      -44.76160000     -32.54100000     -71.28950000
H      -44.75830000     -33.62410000     -71.33560000
H      -45.21950000     -32.21020000     -72.26630000
C      -45.73950000     -32.29190000     -70.04260000
C      -45.40880000     -32.00990000     -68.75550000
C      -47.20640000     -32.38030000     -70.20680000
H      -44.32600000     -31.89200000     -68.43250000
C      -47.78190000     -32.06630000     -68.98510000
C      -48.14780000     -32.72140000     -71.30460000
C      -49.46180000     -32.64450000     -70.82130000
S      -46.72900000     -31.80450000     -67.62020000
S      -49.58430000     -32.16630000     -69.13710000
H      -50.37140000     -32.83370000     -71.47140000
