40
Properties=species:S:1:pos:R:3 #=T CELL(abcABC):=T 1.889726e+02=T 90.00000=T Traj:=T positionsangstrom=T Step:=T 0=T Bead:=T pbc="F F F"
C      -48.36050000     -35.95280000     -68.43680000
C      -47.37920000     -36.19480000     -69.40670000
C      -47.66420000     -35.61930000     -70.71360000
C      -48.71870000     -34.70990000     -70.94660000
C      -49.46830000     -34.25460000     -69.79350000
C      -49.33530000     -34.90640000     -68.56050000
H      -48.24080000     -36.27860000     -67.40800000
H      -46.92860000     -35.92860000     -71.51600000
H      -50.16220000     -33.45600000     -69.99440000
H      -50.09120000     -34.72480000     -67.70030000
C      -49.02990000     -34.09590000     -72.26270000
H      -50.09310000     -34.07130000     -72.45120000
H      -48.58540000     -34.57330000     -73.12590000
C      -46.15170000     -37.06010000     -69.31970000
H      -45.93320000     -37.07830000     -68.17270000
H      -46.29640000     -38.07480000     -69.52120000
S      -48.66000000     -32.20500000     -72.43360000
S      -44.64670000     -36.51920000     -70.18390000
C      -46.78950000     -32.10960000     -72.86140000
H      -46.41560000     -33.12320000     -72.84740000
H      -46.77600000     -31.84980000     -73.86800000
C      -44.05860000     -34.90680000     -69.41890000
H      -43.04230000     -35.05910000     -69.16730000
H      -44.57230000     -34.77690000     -68.47430000
C      -44.35970000     -33.73600000     -70.38010000
H      -45.10370000     -33.93610000     -71.14380000
H      -44.74810000     -32.92840000     -69.82320000
C      -45.97150000     -31.21100000     -71.94010000
H      -46.02670000     -31.54620000     -70.88820000
H      -46.37670000     -30.16780000     -71.87480000
C      -44.50600000     -31.09760000     -72.39320000
C      -44.05360000     -29.89140000     -72.98980000
C      -43.37160000     -31.97290000     -72.01360000
H      -44.61630000     -29.11300000     -73.41900000
C      -42.22820000     -31.53920000     -72.57370000
C      -43.20220000     -33.13820000     -71.12090000
C      -41.89260000     -33.50120000     -71.06890000
S      -42.35320000     -30.10330000     -73.46380000
S      -40.81670000     -32.49400000     -72.16190000
H      -41.47440000     -34.42710000     -70.61050000
