40
Properties=species:S:1:pos:R:3 #=T CELL(abcABC):=T 1.889726e+02=T 90.00000=T Traj:=T positionsangstrom=T Step:=T 0=T Bead:=T pbc="F F F"
C      -43.62700000     -36.04500000     -70.84860000
C      -43.91370000     -35.78560000     -72.19500000
C      -43.30350000     -34.72350000     -72.91080000
C      -42.33150000     -33.96230000     -72.23190000
C      -42.17170000     -34.05410000     -70.81030000
C      -42.77280000     -35.08240000     -70.16160000
H      -44.10520000     -36.78120000     -70.28040000
H      -43.57230000     -34.52800000     -73.92320000
H      -41.55820000     -33.33530000     -70.30170000
H      -42.63860000     -35.05540000     -69.11830000
C      -41.63780000     -32.88680000     -73.15770000
H      -41.40210000     -33.48870000     -74.02950000
H      -40.67380000     -32.39050000     -72.71590000
C      -44.87610000     -36.67600000     -72.95810000
H      -44.37150000     -37.32010000     -73.64250000
H      -45.47560000     -37.32290000     -72.40200000
S      -42.84270000     -31.59000000     -73.58800000
S      -46.10010000     -35.76210000     -73.93020000
C      -43.47880000     -31.10960000     -71.90800000
H      -42.79380000     -31.46310000     -71.07580000
H      -43.46590000     -30.00720000     -71.80440000
C      -47.17670000     -35.15100000     -72.56380000
H      -46.70710000     -35.46590000     -71.59360000
H      -48.17460000     -35.65350000     -72.51690000
C      -47.41240000     -33.67970000     -72.54000000
H      -46.48280000     -33.12170000     -72.74360000
H      -48.15330000     -33.29350000     -73.20480000
C      -44.91060000     -31.70570000     -71.85480000
H      -44.83080000     -32.79650000     -72.12550000
H      -45.49330000     -31.38240000     -72.77070000
C      -45.64550000     -31.58900000     -70.55270000
C      -45.23380000     -30.90130000     -69.45610000
C      -46.84170000     -32.33850000     -70.37190000
H      -44.30980000     -30.40460000     -69.39690000
C      -47.31220000     -32.16380000     -69.08000000
C      -47.67430000     -33.30760000     -71.04570000
C      -48.78130000     -33.76990000     -70.34810000
S      -46.24360000     -31.31090000     -68.03510000
S      -48.82180000     -33.10870000     -68.69210000
H      -49.47890000     -34.49190000     -70.74910000
