40
Properties=species:S:1:pos:R:3 #=T CELL(abcABC):=T 1.889726e+02=T 90.00000=T Traj:=T positionsangstrom=T Step:=T 0=T Bead:=T pbc="F F F"
C      -45.19380000     -34.68200000     -74.60970000
C      -45.52770000     -33.33750000     -74.67930000
C      -46.77760000     -32.95080000     -74.13820000
C      -47.71460000     -33.93610000     -73.71360000
C      -47.36580000     -35.28050000     -73.89750000
C      -46.07710000     -35.69570000     -74.22530000
H      -44.20640000     -35.09300000     -74.84580000
H      -46.91130000     -31.92310000     -73.82910000
H      -48.07560000     -36.05130000     -73.68780000
H      -45.87860000     -36.78570000     -74.35460000
C      -49.09750000     -33.50880000     -73.17220000
H      -49.68840000     -34.32430000     -72.77090000
H      -49.75720000     -33.06550000     -73.92650000
C      -44.50190000     -32.23180000     -74.80280000
H      -44.30200000     -31.90290000     -75.81000000
H      -44.87900000     -31.31820000     -74.44870000
S      -49.08050000     -32.12670000     -71.90990000
S      -42.89320000     -32.76320000     -74.11660000
C      -48.16640000     -32.69310000     -70.41790000
H      -48.34470000     -32.01590000     -69.60600000
H      -48.63580000     -33.59190000     -70.17600000
C      -43.27860000     -33.12100000     -72.36610000
H      -42.42740000     -33.78990000     -72.14040000
H      -44.03720000     -33.84270000     -72.34520000
C      -43.47090000     -32.01980000     -71.41230000
H      -42.65460000     -31.30590000     -71.58510000
H      -44.40920000     -31.54270000     -71.66560000
C      -46.66520000     -32.89730000     -70.65120000
H      -46.33200000     -31.92040000     -71.06250000
H      -46.60420000     -33.61210000     -71.47400000
C      -45.83040000     -33.47810000     -69.44690000
C      -46.36850000     -34.16990000     -68.41720000
C      -44.39880000     -33.23840000     -69.24550000
H      -47.40520000     -34.36490000     -68.22530000
C      -43.89150000     -33.81450000     -68.08860000
C      -43.34120000     -32.57260000     -70.03870000
C      -42.15630000     -32.63210000     -69.39940000
S      -45.13240000     -34.63770000     -67.20570000
S      -42.19280000     -33.53940000     -67.88500000
H      -41.19520000     -32.48160000     -69.87950000
