40
Properties=species:S:1:pos:R:3 #=T CELL(abcABC):=T 1.889726e+02=T 90.00000=T Traj:=T positionsangstrom=T Step:=T 0=T Bead:=T pbc="F F F"
C      -48.15440000     -35.69590000     -68.29510000
C      -47.23190000     -35.95880000     -69.34150000
C      -47.50410000     -35.39730000     -70.56470000
C      -48.64900000     -34.62450000     -70.87150000
C      -49.60810000     -34.43120000     -69.85440000
C      -49.24750000     -34.93050000     -68.59060000
H      -47.91520000     -36.15230000     -67.36440000
H      -46.80760000     -35.55330000     -71.40750000
H      -50.36450000     -33.65520000     -69.97180000
H      -49.94560000     -34.66270000     -67.78240000
C      -48.84480000     -34.04160000     -72.23180000
H      -49.84490000     -34.27760000     -72.60880000
H      -48.13920000     -34.47910000     -72.98670000
C      -46.16160000     -37.03520000     -69.20900000
H      -45.94220000     -37.15920000     -68.12880000
H      -46.63140000     -37.89820000     -69.68720000
S      -48.49230000     -32.23060000     -72.40110000
S      -44.62410000     -36.71530000     -70.34810000
C      -46.73750000     -32.12840000     -73.02050000
H      -46.32000000     -33.15010000     -73.05910000
H      -46.84510000     -31.62630000     -74.02770000
C      -44.14180000     -35.05950000     -69.57510000
H      -43.02510000     -35.02720000     -69.47780000
H      -44.50340000     -35.00800000     -68.55520000
C      -44.52880000     -33.76400000     -70.43290000
H      -45.42740000     -33.94110000     -71.08150000
H      -44.87230000     -33.02020000     -69.63830000
C      -45.96240000     -31.24560000     -72.09720000
H      -46.04050000     -31.71570000     -71.14000000
H      -46.46430000     -30.29550000     -71.98920000
C      -44.54850000     -31.10380000     -72.49890000
C      -44.09350000     -30.02980000     -73.27880000
C      -43.48420000     -31.95230000     -71.97270000
H      -44.65360000     -29.19070000     -73.76400000
C      -42.29490000     -31.42980000     -72.40700000
C      -43.40410000     -33.14150000     -71.16030000
C      -42.10620000     -33.57970000     -71.20350000
S      -42.37590000     -29.98120000     -73.32260000
S      -40.92360000     -32.52250000     -71.97950000
H      -41.74060000     -34.37740000     -70.61230000
