40
Properties=species:S:1:pos:R:3 #=T CELL(abcABC):=T 1.889726e+02=T 90.00000=T Traj:=T positionsangstrom=T Step:=T 0=T Bead:=T pbc="F F F"
C      -48.02490000     -35.68250000     -68.60420000
C      -47.19540000     -35.91880000     -69.66700000
C      -47.54090000     -35.42180000     -70.96890000
C      -48.70330000     -34.65230000     -71.12650000
C      -49.58680000     -34.47240000     -69.97760000
C      -49.29150000     -35.04060000     -68.74520000
H      -47.82730000     -36.10210000     -67.59870000
H      -46.92140000     -35.50680000     -71.87050000
H      -50.45320000     -33.81790000     -70.19670000
H      -49.92720000     -34.87150000     -67.92980000
C      -48.98190000     -33.93180000     -72.35980000
H      -50.04390000     -34.04480000     -72.71700000
H      -48.36310000     -34.40150000     -73.11870000
C      -46.02980000     -36.90780000     -69.45050000
H      -45.84190000     -37.19020000     -68.45010000
H      -46.32610000     -37.77650000     -70.16790000
S      -48.52160000     -32.15850000     -72.10230000
S      -44.45170000     -36.30190000     -70.21770000
C      -46.68470000     -32.24580000     -72.52790000
H      -46.30980000     -33.20970000     -72.20720000
H      -46.75250000     -32.02670000     -73.61700000
C      -44.10920000     -34.79740000     -69.25330000
H      -43.09270000     -34.93680000     -68.93520000
H      -44.64700000     -34.86440000     -68.33970000
C      -44.41110000     -33.44390000     -69.95110000
H      -45.28520000     -33.54890000     -70.57000000
H      -44.61760000     -32.61550000     -69.24740000
C      -46.03270000     -31.05330000     -71.85820000
H      -46.11400000     -31.17200000     -70.75930000
H      -46.47370000     -30.09050000     -72.14660000
C      -44.54890000     -31.03110000     -72.26950000
C      -44.09040000     -30.01850000     -73.10280000
C      -43.52140000     -31.95990000     -71.85000000
H      -44.60560000     -29.15050000     -73.48860000
C      -42.32730000     -31.78130000     -72.58370000
C      -43.34180000     -33.03970000     -70.92690000
C      -42.11820000     -33.65310000     -70.99500000
S      -42.46170000     -30.37470000     -73.69890000
S      -41.04640000     -32.84480000     -72.22620000
H      -41.73580000     -34.46160000     -70.37390000
