40
Properties=species:S:1:pos:R:3 #=T CELL(abcABC):=T 1.889726e+02=T 90.00000=T Traj:=T positionsangstrom=T Step:=T 0=T Bead:=T pbc="F F F"
C      -43.48270000     -36.61120000     -71.87160000
C      -43.66700000     -35.91780000     -73.07980000
C      -42.95520000     -34.74560000     -73.31970000
C      -42.06060000     -34.21310000     -72.29050000
C      -41.97090000     -34.88870000     -71.02460000
C      -42.65660000     -36.09450000     -70.89150000
H      -44.04230000     -37.49700000     -71.71820000
H      -42.97800000     -34.15180000     -74.21140000
H      -41.19010000     -34.68200000     -70.29630000
H      -42.59100000     -36.55650000     -69.97380000
C      -41.41410000     -32.96660000     -72.62140000
H      -40.78060000     -33.22310000     -73.54550000
H      -40.65470000     -32.57240000     -71.95480000
C      -44.60270000     -36.48650000     -74.12230000
H      -44.28260000     -36.17620000     -75.08000000
H      -44.72580000     -37.57080000     -74.06460000
S      -42.52060000     -31.49000000     -73.02240000
S      -46.34740000     -35.81150000     -74.03120000
C      -43.47150000     -31.16900000     -71.49660000
H      -42.92500000     -31.25740000     -70.58640000
H      -43.71340000     -30.13730000     -71.51730000
C      -46.49220000     -35.06440000     -72.30310000
H      -45.52900000     -34.72210000     -71.87920000
H      -46.82350000     -35.92040000     -71.63100000
C      -47.54840000     -33.93640000     -72.25100000
H      -47.35210000     -33.17000000     -72.94300000
H      -48.46940000     -34.41500000     -72.46300000
C      -44.79930000     -31.93780000     -71.43770000
H      -44.58890000     -33.00380000     -71.32620000
H      -45.28020000     -31.84400000     -72.39970000
C      -45.70790000     -31.59560000     -70.30130000
C      -45.47120000     -30.69390000     -69.29490000
C      -46.97240000     -32.34180000     -70.10480000
H      -44.48830000     -30.12870000     -69.26210000
C      -47.49720000     -32.02390000     -68.89090000
C      -47.81680000     -33.25090000     -70.89670000
C      -49.01000000     -33.48610000     -70.18190000
S      -46.67150000     -30.83290000     -67.97160000
S      -49.14100000     -32.61500000     -68.66880000
H      -49.81630000     -34.10360000     -70.57480000
