40
Properties=species:S:1:pos:R:3 #=T CELL(abcABC):=T 1.889726e+02=T 90.00000=T Traj:=T positionsangstrom=T Step:=T 0=T Bead:=T pbc="F F F"
C      -43.38510000     -36.68980000     -71.94720000
C      -43.76760000     -35.86660000     -73.00160000
C      -43.13730000     -34.60670000     -73.20920000
C      -42.13360000     -34.19690000     -72.30460000
C      -41.71830000     -35.08070000     -71.26220000
C      -42.40640000     -36.28180000     -71.07000000
H      -43.65710000     -37.73620000     -71.78200000
H      -43.43250000     -34.02230000     -74.10760000
H      -41.06850000     -34.62990000     -70.55740000
H      -42.05560000     -36.90810000     -70.29180000
C      -41.46540000     -32.82990000     -72.40620000
H      -40.63910000     -32.84310000     -73.13240000
H      -41.26950000     -32.52020000     -71.37550000
C      -44.79750000     -36.44180000     -74.03920000
H      -44.36610000     -36.30300000     -75.08590000
H      -44.79840000     -37.51940000     -73.95280000
S      -42.58900000     -31.43750000     -73.04210000
S      -46.49440000     -35.73360000     -73.82980000
C      -43.56470000     -31.09180000     -71.44840000
H      -42.80760000     -31.13460000     -70.60610000
H      -43.97580000     -30.03570000     -71.57200000
C      -46.46330000     -34.84300000     -72.22100000
H      -45.46570000     -34.56560000     -71.90900000
H      -46.85510000     -35.46240000     -71.46630000
C      -47.33810000     -33.60470000     -72.37080000
H      -46.78490000     -32.86510000     -73.01850000
H      -48.19330000     -33.79020000     -73.04360000
C      -44.66550000     -32.07190000     -71.33520000
H      -44.23960000     -33.10870000     -71.35110000
H      -45.23330000     -32.06570000     -72.25560000
C      -45.59070000     -31.81100000     -70.13820000
C      -45.36330000     -31.05160000     -69.03330000
C      -46.97720000     -32.23430000     -70.15260000
H      -44.34830000     -30.65710000     -68.79250000
C      -47.61120000     -31.88780000     -68.99700000
C      -47.70960000     -33.09720000     -71.01000000
C      -48.87710000     -33.57540000     -70.42300000
S      -46.72950000     -30.83500000     -67.99620000
S      -49.14600000     -32.82690000     -68.83850000
H      -49.62970000     -34.21970000     -70.85240000
