40
Properties=species:S:1:pos:R:3 #=T CELL(abcABC):=T 1.889726e+02=T 90.00000=T Traj:=T positionsangstrom=T Step:=T 0=T Bead:=T pbc="F F F"
C      -47.55240000     -35.61750000     -68.79750000
C      -47.29300000     -35.67570000     -70.16790000
C      -48.00550000     -34.77260000     -71.07910000
C      -48.91530000     -33.82730000     -70.58610000
C      -49.06450000     -33.76250000     -69.14330000
C      -48.41940000     -34.65510000     -68.27860000
H      -47.12840000     -36.36760000     -68.20580000
H      -47.93840000     -34.76570000     -72.17740000
H      -49.72370000     -33.09650000     -68.70550000
H      -48.75620000     -34.70580000     -67.25980000
C      -49.56140000     -32.88540000     -71.49880000
H      -50.45530000     -32.50360000     -71.03530000
H      -49.90250000     -33.40520000     -72.38320000
C      -46.43490000     -36.71040000     -70.74870000
H      -46.78750000     -37.76350000     -70.48670000
H      -46.57730000     -36.83570000     -71.87600000
S      -48.52710000     -31.41590000     -71.77510000
S      -44.65420000     -36.56660000     -70.40750000
C      -46.86910000     -31.89750000     -72.35420000
H      -46.82280000     -32.94210000     -71.99970000
H      -46.85710000     -32.08380000     -73.39940000
C      -44.48520000     -35.11250000     -69.31300000
H      -43.47740000     -35.32370000     -68.82560000
H      -45.16090000     -35.15220000     -68.47090000
C      -44.54630000     -33.72940000     -70.02370000
H      -45.43960000     -33.68590000     -70.66770000
H      -44.75630000     -33.02590000     -69.21400000
C      -45.72250000     -31.00310000     -71.89770000
H      -45.78720000     -31.04910000     -70.80100000
H      -46.03650000     -29.92310000     -72.18540000
C      -44.44420000     -31.37050000     -72.54180000
C      -44.00070000     -30.86840000     -73.77560000
C      -43.49690000     -32.33290000     -71.98510000
H      -44.47440000     -30.03850000     -74.26440000
C      -42.29020000     -32.31080000     -72.71300000
C      -43.36110000     -33.24350000     -70.83090000
C      -42.02770000     -33.70310000     -70.68750000
S      -42.29130000     -31.31290000     -74.16430000
S      -40.95040000     -33.06450000     -71.81960000
H      -41.71630000     -34.23760000     -69.84010000
