40
Properties=species:S:1:pos:R:3 #=T CELL(abcABC):=T 1.889726e+02=T 90.00000=T Traj:=T positionsangstrom=T Step:=T 0=T Bead:=T pbc="F F F"
C      -47.89880000     -36.14410000     -68.85370000
C      -47.09690000     -36.09090000     -70.12510000
C      -47.45860000     -35.16950000     -71.08790000
C      -48.60480000     -34.36410000     -70.90970000
C      -49.34720000     -34.39360000     -69.76410000
C      -49.05350000     -35.36720000     -68.76070000
H      -47.70550000     -36.82670000     -68.01810000
H      -47.01640000     -35.16990000     -72.09010000
H      -50.26140000     -33.79030000     -69.69670000
H      -49.75730000     -35.42360000     -67.92990000
C      -48.98390000     -33.48540000     -72.09850000
H      -50.03750000     -33.38200000     -72.11640000
H      -48.58160000     -33.77230000     -73.04950000
C      -45.81620000     -36.92940000     -70.16660000
H      -45.80200000     -37.57850000     -69.30910000
H      -45.72330000     -37.60750000     -71.13480000
S      -48.49580000     -31.70670000     -71.85590000
S      -44.23010000     -35.95440000     -70.09580000
C      -46.67280000     -31.79910000     -72.21680000
H      -46.41090000     -32.71920000     -71.89780000
H      -46.61320000     -31.89110000     -73.30920000
C      -44.58010000     -34.47280000     -68.97490000
H      -43.73400000     -34.55940000     -68.24490000
H      -45.51320000     -34.63410000     -68.41090000
C      -44.52740000     -33.09360000     -69.69010000
H      -45.48340000     -32.96490000     -70.10150000
H      -44.50300000     -32.29680000     -68.90920000
C      -45.77460000     -30.65780000     -71.70990000
H      -45.67020000     -30.63340000     -70.56510000
H      -46.08290000     -29.62100000     -71.95170000
C      -44.45820000     -30.94410000     -72.26110000
C      -44.01740000     -30.32850000     -73.40710000
C      -43.64450000     -32.06410000     -71.88940000
H      -44.50070000     -29.59560000     -73.99140000
C      -42.62800000     -32.27240000     -72.80430000
C      -43.43090000     -32.85290000     -70.71490000
C      -42.29190000     -33.61120000     -70.81040000
S      -42.52430000     -31.10140000     -74.07400000
S      -41.32480000     -33.39160000     -72.23920000
H      -42.00140000     -34.28960000     -70.05570000
