40
Properties=species:S:1:pos:R:3 #=T CELL(abcABC):=T 1.889726e+02=T 90.00000=T Traj:=T positionsangstrom=T Step:=T 0=T Bead:=T pbc="F F F"
C      -47.62740000     -35.78490000     -68.87150000
C      -47.26710000     -35.77950000     -70.26690000
C      -47.87740000     -34.98320000     -71.18590000
C      -48.85970000     -34.02940000     -70.82440000
C      -49.20510000     -34.01730000     -69.47130000
C      -48.63030000     -34.91050000     -68.50080000
H      -47.21240000     -36.56190000     -68.22910000
H      -47.55330000     -35.02840000     -72.18830000
H      -49.98170000     -33.35080000     -69.00500000
H      -48.94400000     -34.88350000     -67.44560000
C      -49.44010000     -33.10910000     -71.78230000
H      -50.48620000     -32.83530000     -71.58290000
H      -49.33990000     -33.41160000     -72.80910000
C      -46.17540000     -36.74710000     -70.73390000
H      -46.39450000     -37.64120000     -70.04340000
H      -46.31730000     -37.07260000     -71.73990000
S      -48.55390000     -31.48020000     -71.66880000
S      -44.47430000     -36.19590000     -70.34240000
C      -47.02850000     -31.49890000     -72.63510000
H      -46.89880000     -32.54880000     -72.86010000
H      -47.05360000     -30.97120000     -73.59550000
C      -44.55810000     -34.74790000     -69.08610000
H      -43.73660000     -34.87500000     -68.42250000
H      -45.49250000     -34.85340000     -68.38920000
C      -44.57090000     -33.40810000     -69.77130000
H      -45.50210000     -33.32200000     -70.30370000
H      -44.53260000     -32.59360000     -68.98750000
C      -45.73770000     -31.02630000     -71.89750000
H      -45.83680000     -31.33510000     -70.80440000
H      -45.82140000     -29.92190000     -71.79070000
C      -44.42490000     -31.37200000     -72.49430000
C      -43.89570000     -30.74560000     -73.55310000
C      -43.50800000     -32.34850000     -71.98070000
H      -44.50910000     -30.06630000     -74.15670000
C      -42.26340000     -32.38700000     -72.67490000
C      -43.41060000     -33.17770000     -70.76460000
C      -42.19620000     -33.75650000     -70.64920000
S      -42.28670000     -31.27200000     -74.02040000
S      -41.04760000     -33.31840000     -71.85310000
H      -41.88790000     -34.42330000     -69.81370000
