40
Properties=species:S:1:pos:R:3 #=T CELL(abcABC):=T 1.889726e+02=T 90.00000=T Traj:=T positionsangstrom=T Step:=T 0=T Bead:=T pbc="F F F"
C      -44.75610000     -33.59250000     -75.62170000
C      -43.93760000     -33.07190000     -74.61420000
C      -44.41910000     -31.97230000     -73.80340000
C      -45.65040000     -31.33800000     -73.99630000
C      -46.46900000     -31.88550000     -75.02290000
C      -46.01320000     -32.88140000     -75.89550000
H      -44.49980000     -34.58460000     -76.05940000
H      -43.75670000     -31.62950000     -72.98520000
H      -47.43210000     -31.41370000     -75.17680000
H      -46.65400000     -33.17900000     -76.65320000
C      -46.20310000     -30.21780000     -73.11800000
H      -47.24550000     -29.99450000     -73.44570000
H      -45.63730000     -29.25960000     -73.06340000
C      -42.58820000     -33.61640000     -74.25530000
H      -42.10030000     -33.73820000     -75.29500000
H      -42.00120000     -32.88840000     -73.66500000
S      -46.35990000     -30.66240000     -71.30890000
S      -42.50960000     -35.28710000     -73.48980000
C      -47.86830000     -31.72900000     -71.40550000
H      -48.68900000     -31.40100000     -70.73840000
H      -48.35270000     -31.72190000     -72.42560000
C      -42.87710000     -34.85400000     -71.74810000
H      -42.27390000     -33.88970000     -71.53980000
H      -42.36360000     -35.71790000     -71.28470000
C      -44.45110000     -34.82130000     -71.49980000
H      -44.75100000     -33.89830000     -72.11130000
H      -44.96230000     -35.67090000     -72.02260000
C      -47.54360000     -33.22080000     -71.13530000
H      -46.66760000     -33.50020000     -71.76880000
H      -48.38780000     -33.94210000     -71.29870000
C      -47.11530000     -33.47160000     -69.75530000
C      -47.77290000     -33.01360000     -68.60510000
C      -45.94430000     -34.28250000     -69.35980000
H      -48.76600000     -32.56200000     -68.74780000
C      -45.77620000     -34.35720000     -67.97270000
C      -44.70560000     -34.79480000     -70.02290000
C      -43.89480000     -35.43240000     -69.12420000
S      -46.96170000     -33.42970000     -67.09740000
S      -44.41840000     -35.20720000     -67.45490000
H      -42.85060000     -35.77580000     -69.28850000
