40
Properties=species:S:1:pos:R:3 #=T CELL(abcABC):=T 1.889726e+02=T 90.00000=T Traj:=T positionsangstrom=T Step:=T 0=T Bead:=T pbc="F F F"
C      -44.87480000     -33.68230000     -75.37880000
C      -43.86690000     -33.16780000     -74.59530000
C      -44.09460000     -32.01010000     -73.88400000
C      -45.37590000     -31.35210000     -73.91520000
C      -46.36560000     -31.91020000     -74.68280000
C      -46.09540000     -33.08910000     -75.40000000
H      -44.72700000     -34.50200000     -76.05610000
H      -43.27070000     -31.48090000     -73.30350000
H      -47.45460000     -31.60590000     -74.56150000
H      -46.85240000     -33.45840000     -76.10220000
C      -45.67200000     -30.18690000     -73.05470000
H      -46.34880000     -29.60290000     -73.65730000
H      -44.86300000     -29.51430000     -72.72830000
C      -42.55090000     -33.98670000     -74.49000000
H      -42.18800000     -34.21530000     -75.52110000
H      -41.72520000     -33.54690000     -73.94060000
S      -46.26860000     -30.75440000     -71.36400000
S      -42.84640000     -35.63030000     -73.61060000
C      -47.79430000     -31.81650000     -71.58510000
H      -48.60940000     -31.42000000     -71.05340000
H      -47.94900000     -31.72570000     -72.59940000
C      -43.18970000     -35.20570000     -71.82930000
H      -42.40040000     -34.50300000     -71.51310000
H      -42.98270000     -36.12150000     -71.24790000
C      -44.55440000     -34.62580000     -71.44860000
H      -44.69800000     -33.63020000     -71.90190000
H      -45.45630000     -35.24550000     -71.91030000
C      -47.59420000     -33.31910000     -71.27070000
H      -46.91150000     -33.71550000     -71.93580000
H      -48.53880000     -33.87530000     -71.38320000
C      -47.24570000     -33.60120000     -69.79520000
C      -48.01260000     -33.28590000     -68.77610000
C      -45.92540000     -34.17750000     -69.32910000
H      -48.98160000     -32.70900000     -68.88270000
C      -45.75110000     -34.03950000     -67.96760000
C      -44.66250000     -34.64070000     -69.96430000
C      -43.68430000     -34.87430000     -69.03820000
S      -47.17580000     -33.45710000     -67.18520000
S      -44.23640000     -34.54460000     -67.39900000
H      -42.65890000     -35.26690000     -69.22410000
