40
Properties=species:S:1:pos:R:3 #=T CELL(abcABC):=T 1.889726e+02=T 90.00000=T Traj:=T positionsangstrom=T Step:=T 0=T Bead:=T pbc="F F F"
C      -47.41700000     -36.29120000     -72.54130000
C      -46.98970000     -34.88920000     -72.69020000
C      -45.61480000     -34.60180000     -72.57660000
C      -44.62730000     -35.59120000     -72.58130000
C      -45.04000000     -36.90310000     -72.65460000
C      -46.43010000     -37.28810000     -72.52300000
H      -48.48910000     -36.41750000     -72.68290000
H      -45.29260000     -33.61780000     -72.58380000
H      -44.27330000     -37.79020000     -72.67560000
H      -46.60600000     -38.36330000     -72.74180000
C      -43.10380000     -35.33930000     -72.55960000
H      -42.94500000     -34.32200000     -73.00260000
H      -42.63080000     -36.15040000     -73.09690000
C      -48.04120000     -33.78730000     -72.52610000
H      -47.52990000     -32.88080000     -72.83000000
H      -48.86720000     -33.97350000     -73.10650000
S      -42.31780000     -35.35590000     -70.88460000
S      -48.76700000     -33.52310000     -70.76650000
C      -43.62740000     -35.02990000     -69.69860000
H      -44.52650000     -35.27530000     -70.20810000
H      -43.64510000     -35.74210000     -68.92190000
C      -47.38160000     -33.75320000     -69.58370000
H      -46.47280000     -34.36240000     -69.97690000
H      -47.75620000     -34.27990000     -68.64020000
C      -46.97080000     -32.40700000     -68.95140000
H      -47.80840000     -31.93190000     -68.46750000
H      -46.18910000     -32.60450000     -68.16970000
C      -43.58280000     -33.58560000     -69.12910000
H      -42.52890000     -33.50880000     -68.74350000
H      -44.37470000     -33.56220000     -68.43580000
C      -43.70170000     -32.50930000     -70.18370000
C      -42.60340000     -32.23220000     -71.00950000
C      -44.87220000     -31.79040000     -70.52440000
H      -41.58160000     -32.62260000     -70.84360000
C      -44.63210000     -30.92940000     -71.59670000
C      -46.30230000     -31.55250000     -70.01420000
C      -47.02740000     -30.70760000     -70.76960000
S      -43.06610000     -31.03480000     -72.21540000
S      -46.04060000     -29.96710000     -72.04470000
H      -47.96840000     -30.32770000     -70.60350000
