40
Properties=species:S:1:pos:R:3 #=T CELL(abcABC):=T 1.889726e+02=T 90.00000=T Traj:=T positionsangstrom=T Step:=T 0=T Bead:=T pbc="F F F"
C      -45.30640000     -34.80480000     -74.60340000
C      -45.50780000     -33.45020000     -74.45450000
C      -46.75080000     -33.05950000     -73.98360000
C      -47.75070000     -33.95580000     -73.57860000
C      -47.47050000     -35.32470000     -73.74280000
C      -46.34240000     -35.67750000     -74.38470000
H      -44.37270000     -35.26470000     -75.07350000
H      -46.81580000     -32.02740000     -73.67420000
H      -48.28970000     -36.05690000     -73.54500000
H      -46.23580000     -36.71680000     -74.57460000
C      -49.09710000     -33.39370000     -73.24180000
H      -49.80800000     -34.18910000     -73.07200000
H      -49.30400000     -32.84970000     -74.14340000
C      -44.47740000     -32.35360000     -74.83710000
H      -44.21610000     -32.31520000     -75.84870000
H      -44.91650000     -31.42580000     -74.48860000
S      -48.98720000     -32.08640000     -71.94480000
S      -42.82350000     -32.54340000     -74.08770000
C      -48.02370000     -32.94380000     -70.67450000
H      -48.59300000     -32.85500000     -69.75490000
H      -47.98440000     -34.01870000     -70.90120000
C      -42.95130000     -33.13290000     -72.32650000
H      -42.11130000     -33.69550000     -72.07470000
H      -43.82010000     -33.75000000     -72.24880000
C      -43.28810000     -31.94800000     -71.30760000
H      -42.61860000     -31.13310000     -71.39530000
H      -44.23880000     -31.48260000     -71.49250000
C      -46.57580000     -32.43500000     -70.58910000
H      -46.55600000     -31.41490000     -70.28790000
H      -46.13330000     -32.55320000     -71.55200000
C      -45.83010000     -33.26170000     -69.54520000
C      -46.43510000     -34.00450000     -68.55890000
C      -44.36410000     -33.26590000     -69.31120000
H      -47.51270000     -34.15280000     -68.49020000
C      -43.98370000     -33.95530000     -68.17220000
C      -43.25720000     -32.56630000     -69.93140000
C      -42.07920000     -32.85700000     -69.29160000
S      -45.31870000     -34.74790000     -67.41370000
S      -42.32870000     -33.65940000     -67.73330000
H      -41.11160000     -32.42700000     -69.46770000
