40
Properties=species:S:1:pos:R:3 #=T CELL(abcABC):=T 1.889726e+02=T 90.00000=T Traj:=T positionsangstrom=T Step:=T 0=T Bead:=T pbc="F F F"
C      -47.43070000     -36.31340000     -72.47350000
C      -46.99100000     -35.00110000     -72.61750000
C      -45.65180000     -34.62160000     -72.59040000
C      -44.63810000     -35.61960000     -72.43180000
C      -45.08110000     -36.95670000     -72.36560000
C      -46.46200000     -37.30630000     -72.33840000
H      -48.47980000     -36.53000000     -72.29960000
H      -45.39280000     -33.49160000     -72.66350000
H      -44.33850000     -37.63100000     -72.19120000
H      -46.74760000     -38.33020000     -72.35010000
C      -43.20440000     -35.27760000     -72.30900000
H      -42.94200000     -34.22620000     -72.55110000
H      -42.61640000     -36.10300000     -72.88830000
C      -47.99760000     -33.86470000     -72.56430000
H      -47.49760000     -32.92050000     -72.61790000
H      -48.61090000     -34.02560000     -73.47780000
S      -42.62790000     -35.56220000     -70.54360000
S      -49.05180000     -33.95000000     -71.03640000
C      -43.96190000     -34.88690000     -69.47490000
H      -44.85500000     -34.89430000     -70.05480000
H      -44.21100000     -35.54140000     -68.59370000
C      -47.73410000     -33.79200000     -69.76040000
H      -47.03940000     -34.54300000     -70.07770000
H      -48.28680000     -34.04450000     -68.84830000
C      -47.04880000     -32.47520000     -69.45840000
H      -47.86100000     -31.88280000     -69.14050000
H      -46.48040000     -32.79710000     -68.58480000
C      -43.55000000     -33.43330000     -69.05350000
H      -42.52970000     -33.33420000     -68.71510000
H      -44.18650000     -33.12180000     -68.26100000
C      -43.66810000     -32.44400000     -70.13660000
C      -42.46700000     -31.92700000     -70.64040000
C      -44.80790000     -31.69870000     -70.70640000
H      -41.48430000     -32.28780000     -70.43020000
C      -44.42110000     -30.76320000     -71.69720000
C      -46.23490000     -31.68650000     -70.51170000
C      -46.80800000     -30.67540000     -71.22800000
S      -42.67070000     -30.74090000     -71.91060000
S      -45.70600000     -29.84100000     -72.34730000
H      -47.92500000     -30.55310000     -71.40990000
