40
Properties=species:S:1:pos:R:3 #=T CELL(abcABC):=T 1.889726e+02=T 90.00000=T Traj:=T positionsangstrom=T Step:=T 0=T Bead:=T pbc="F F F"
C      -47.01540000     -36.30570000     -73.17190000
C      -46.74520000     -34.97690000     -72.90830000
C      -45.41700000     -34.65160000     -72.50030000
C      -44.47990000     -35.63420000     -72.24470000
C      -44.84910000     -36.94390000     -72.38540000
C      -46.11030000     -37.32590000     -72.86170000
H      -47.98570000     -36.52000000     -73.49440000
H      -45.11230000     -33.61700000     -72.46490000
H      -44.13850000     -37.76800000     -72.04890000
H      -46.47270000     -38.29530000     -72.95570000
C      -43.09950000     -35.22550000     -71.76520000
H      -42.84620000     -34.21570000     -71.89350000
H      -42.40960000     -35.84520000     -72.26130000
C      -47.74780000     -33.84710000     -73.15430000
H      -47.22890000     -32.89100000     -73.30850000
H      -48.22880000     -34.06850000     -74.14040000
S      -42.87830000     -35.60820000     -69.91350000
S      -48.93010000     -33.70470000     -71.76230000
C      -44.21590000     -34.80090000     -68.97410000
H      -45.15620000     -34.78210000     -69.44730000
H      -44.35920000     -35.41660000     -68.05140000
C      -47.93770000     -33.72910000     -70.21530000
H      -47.09270000     -34.35300000     -70.31180000
H      -48.59850000     -34.09680000     -69.44090000
C      -47.47880000     -32.33780000     -69.76520000
H      -48.38820000     -31.66600000     -69.77350000
H      -47.17760000     -32.39420000     -68.69640000
C      -43.91150000     -33.29280000     -68.53110000
H      -42.87220000     -33.33830000     -68.20610000
H      -44.64410000     -32.95130000     -67.77910000
C      -43.93940000     -32.45020000     -69.80400000
C      -42.68930000     -32.08610000     -70.28520000
C      -44.94850000     -31.71820000     -70.56850000
H      -41.75580000     -32.58410000     -70.04500000
C      -44.41040000     -30.87480000     -71.58480000
C      -46.37770000     -31.61040000     -70.56500000
C      -46.81860000     -30.67740000     -71.40240000
S      -42.63840000     -31.02120000     -71.60250000
S      -45.57110000     -29.88940000     -72.41410000
H      -47.84350000     -30.36930000     -71.53880000
