40
Properties=species:S:1:pos:R:3 #=T CELL(abcABC):=T 1.889726e+02=T 90.00000=T Traj:=T positionsangstrom=T Step:=T 0=T Bead:=T pbc="F F F"
C      -47.24180000     -36.66010000     -72.60930000
C      -47.02590000     -35.27450000     -72.70960000
C      -45.74360000     -34.67160000     -72.60270000
C      -44.71820000     -35.53500000     -72.30690000
C      -44.92560000     -36.89850000     -72.09570000
C      -46.18240000     -37.48860000     -72.24070000
H      -48.23850000     -37.08000000     -72.71160000
H      -45.47120000     -33.64140000     -72.68460000
H      -44.22230000     -37.60310000     -71.61740000
H      -46.32700000     -38.58610000     -72.22790000
C      -43.29810000     -35.06040000     -72.17470000
H      -43.17630000     -34.06910000     -72.57610000
H      -42.68590000     -35.67280000     -72.85210000
C      -48.19340000     -34.26270000     -72.98260000
H      -47.99910000     -33.43890000     -73.58850000
H      -49.08200000     -34.71900000     -73.38230000
S      -42.61750000     -35.13900000     -70.45780000
S      -49.03810000     -33.51910000     -71.37520000
C      -44.02910000     -34.70760000     -69.32320000
H      -44.97130000     -34.78100000     -69.82500000
H      -44.05580000     -35.47650000     -68.50690000
C      -47.83500000     -33.77570000     -70.00640000
H      -47.06050000     -34.58180000     -70.22100000
H      -48.42470000     -34.20420000     -69.11690000
C      -47.14320000     -32.49390000     -69.48130000
H      -47.96960000     -31.84610000     -69.21300000
H      -46.44890000     -32.91270000     -68.73480000
C      -43.91800000     -33.30920000     -68.69150000
H      -43.02270000     -33.29560000     -68.04970000
H      -44.80080000     -33.07680000     -68.06910000
C      -43.70510000     -32.27660000     -69.85100000
C      -42.41580000     -31.84630000     -70.26420000
C      -44.77870000     -31.66700000     -70.58830000
H      -41.47830000     -32.26720000     -69.85670000
C      -44.30640000     -30.78640000     -71.51620000
C      -46.25690000     -31.82360000     -70.58060000
C      -46.78920000     -31.08830000     -71.61290000
S      -42.62140000     -30.84920000     -71.70960000
S      -45.59410000     -30.18830000     -72.56740000
H      -47.79880000     -31.16050000     -71.84600000
