40
Properties=species:S:1:pos:R:3 #=T CELL(abcABC):=T 1.889726e+02=T 90.00000=T Traj:=T positionsangstrom=T Step:=T 0=T Bead:=T pbc="F F F"
C      -47.32410000     -36.59110000     -72.59230000
C      -47.08440000     -35.19720000     -72.67680000
C      -45.77660000     -34.68560000     -72.72490000
C      -44.73380000     -35.55770000     -72.35390000
C      -44.99220000     -36.92540000     -72.09980000
C      -46.27770000     -37.41800000     -72.23090000
H      -48.36520000     -36.90630000     -72.70630000
H      -45.57870000     -33.62560000     -72.64900000
H      -44.16910000     -37.64260000     -71.77010000
H      -46.41830000     -38.45930000     -71.87830000
C      -43.36370000     -34.94140000     -72.20860000
H      -43.39540000     -33.85490000     -72.55550000
H      -42.67290000     -35.34010000     -72.96380000
C      -48.25570000     -34.30150000     -72.83550000
H      -47.99920000     -33.41650000     -73.43640000
H      -49.08790000     -34.74950000     -73.32090000
S      -42.61950000     -35.33640000     -70.56920000
S      -48.85470000     -33.53540000     -71.23970000
C      -43.76840000     -34.74940000     -69.26450000
H      -44.78870000     -35.06630000     -69.67230000
H      -43.51460000     -35.37780000     -68.43660000
C      -47.58770000     -33.84500000     -69.89610000
H      -46.72310000     -34.29380000     -70.39850000
H      -48.14960000     -34.37280000     -69.09790000
C      -47.06530000     -32.42890000     -69.37290000
H      -47.97310000     -31.87040000     -68.97980000
H      -46.51840000     -32.59810000     -68.45090000
C      -43.76150000     -33.28710000     -68.80860000
H      -42.98290000     -33.04100000     -68.09130000
H      -44.67280000     -33.13380000     -68.21020000
C      -43.72230000     -32.26160000     -69.88840000
C      -42.51490000     -32.03320000     -70.53900000
C      -44.86010000     -31.63040000     -70.55660000
H      -41.56240000     -32.43870000     -70.06690000
C      -44.39740000     -30.83530000     -71.63290000
C      -46.28290000     -31.63810000     -70.40140000
C      -46.93840000     -30.96370000     -71.44060000
S      -42.67430000     -30.82320000     -71.77810000
S      -45.66920000     -30.17270000     -72.59330000
H      -47.97160000     -30.74460000     -71.51080000
