40
Properties=species:S:1:pos:R:3 #=T CELL(abcABC):=T 1.889726e+02=T 90.00000=T Traj:=T positionsangstrom=T Step:=T 0=T Bead:=T pbc="F F F"
C      -47.31740000     -36.44900000     -72.50940000
C      -47.02010000     -35.09850000     -72.77830000
C      -45.68100000     -34.67770000     -72.62680000
C      -44.69020000     -35.58040000     -72.33400000
C      -44.93980000     -36.96570000     -72.23560000
C      -46.28090000     -37.34370000     -72.25520000
H      -48.33160000     -36.88340000     -72.42450000
H      -45.51960000     -33.61460000     -72.69770000
H      -44.17460000     -37.74130000     -72.18480000
H      -46.45250000     -38.41830000     -72.02690000
C      -43.33250000     -34.98420000     -72.04570000
H      -43.39220000     -33.87080000     -72.17500000
H      -42.53940000     -35.29040000     -72.76130000
C      -48.07020000     -34.12700000     -72.97980000
H      -47.50920000     -33.20980000     -73.44650000
H      -48.89210000     -34.43400000     -73.67810000
S      -42.66050000     -35.34270000     -70.36680000
S      -48.91850000     -33.64420000     -71.45070000
C      -44.01750000     -34.66360000     -69.31900000
H      -44.93290000     -34.86320000     -69.95830000
H      -44.03270000     -35.44460000     -68.55520000
C      -47.64330000     -33.78090000     -70.10790000
H      -46.81210000     -34.27290000     -70.55260000
H      -48.11780000     -34.33480000     -69.33980000
C      -47.21960000     -32.42520000     -69.56920000
H      -48.00930000     -31.76630000     -69.27580000
H      -46.62420000     -32.51300000     -68.57220000
C      -43.91590000     -33.27430000     -68.68230000
H      -43.01980000     -33.12510000     -68.05500000
H      -44.77130000     -33.15240000     -68.02980000
C      -43.80670000     -32.25710000     -69.79380000
C      -42.52710000     -31.82260000     -70.17240000
C      -44.84930000     -31.75960000     -70.61030000
H      -41.61000000     -32.24640000     -69.89490000
C      -44.34410000     -30.93950000     -71.58180000
C      -46.32110000     -31.69620000     -70.56380000
C      -46.83210000     -30.97950000     -71.57880000
S      -42.60530000     -30.79280000     -71.56900000
S      -45.59190000     -30.29280000     -72.67830000
H      -47.90770000     -30.79010000     -71.62010000
