40
Properties=species:S:1:pos:R:3 #=T CELL(abcABC):=T 1.889726e+02=T 90.00000=T Traj:=T positionsangstrom=T Step:=T 0=T Bead:=T pbc="F F F"
C      -47.34670000     -33.79730000     -68.24170000
C      -47.93820000     -34.21400000     -69.46590000
C      -48.22190000     -33.25990000     -70.39230000
C      -48.05830000     -31.84850000     -70.12320000
C      -47.61090000     -31.42410000     -68.80440000
C      -47.20860000     -32.43820000     -67.94730000
H      -47.15880000     -34.65660000     -67.57320000
H      -48.77440000     -33.54500000     -71.31830000
H      -47.31900000     -30.35700000     -68.57770000
H      -46.92850000     -32.17030000     -66.90840000
C      -48.26560000     -30.83190000     -71.28110000
H      -48.92460000     -29.99840000     -71.05120000
H      -48.58970000     -31.35160000     -72.19720000
C      -48.20180000     -35.66990000     -69.71150000
H      -47.62980000     -36.33340000     -69.05090000
H      -49.17200000     -35.87340000     -69.32540000
S      -46.85870000     -29.87770000     -71.95980000
S      -47.93850000     -36.27020000     -71.39480000
C      -45.75180000     -31.26390000     -72.41200000
H      -46.36400000     -32.19340000     -72.70990000
H      -45.10910000     -30.88180000     -73.23230000
C      -46.14690000     -36.22650000     -71.74050000
H      -45.99890000     -37.05770000     -72.39410000
H      -45.62350000     -36.53980000     -70.81310000
C      -45.71140000     -34.84720000     -72.27320000
H      -46.18760000     -34.52900000     -73.23590000
H      -46.04850000     -34.09230000     -71.56790000
C      -44.77510000     -31.52950000     -71.21770000
H      -45.42500000     -32.02330000     -70.50750000
H      -44.43960000     -30.56060000     -70.80130000
C      -43.51440000     -32.26230000     -71.43710000
C      -42.29560000     -31.68380000     -71.12810000
C      -43.30600000     -33.58330000     -72.06750000
H      -42.11350000     -30.72260000     -70.66260000
C      -41.97340000     -33.87570000     -72.44160000
C      -44.22490000     -34.64330000     -72.51830000
C      -43.52470000     -35.68930000     -73.04320000
S      -40.85460000     -32.61830000     -71.70270000
S      -41.74000000     -35.47010000     -73.06390000
H      -43.93280000     -36.63250000     -73.40690000
