40
Properties=species:S:1:pos:R:3 #=T CELL(abcABC):=T 1.889726e+02=T 90.00000=T Traj:=T positionsangstrom=T Step:=T 0=T Bead:=T pbc="F F F"
C      -44.06430000     -33.88990000     -75.24960000
C      -43.46080000     -33.41770000     -74.05770000
C      -43.86170000     -32.14970000     -73.52340000
C      -44.96480000     -31.54450000     -74.06420000
C      -45.70210000     -32.15790000     -75.12610000
C      -45.26290000     -33.31710000     -75.69520000
H      -43.75470000     -34.82790000     -75.72610000
H      -43.40730000     -31.71400000     -72.69140000
H      -46.61590000     -31.65520000     -75.53640000
H      -45.84060000     -33.68990000     -76.62130000
C      -45.40640000     -30.24500000     -73.49990000
H      -46.00540000     -29.63210000     -74.19350000
H      -44.49420000     -29.71110000     -73.35310000
C      -42.31590000     -34.19950000     -73.46590000
H      -41.56770000     -34.32080000     -74.27040000
H      -41.84630000     -33.59390000     -72.63330000
S      -46.38980000     -30.31490000     -71.94590000
S      -42.68310000     -36.00350000     -73.02920000
C      -47.59590000     -31.74140000     -72.24470000
H      -48.53500000     -31.47260000     -71.79370000
H      -47.79730000     -31.74080000     -73.32250000
C      -43.21500000     -35.94980000     -71.25000000
H      -42.42580000     -35.55030000     -70.56510000
H      -43.27640000     -37.00520000     -70.82040000
C      -44.55090000     -35.20170000     -71.05470000
H      -44.47510000     -34.25720000     -71.51890000
H      -45.43110000     -35.60470000     -71.65270000
C      -47.10130000     -33.11650000     -71.78500000
H      -46.08800000     -33.17500000     -72.21510000
H      -47.66100000     -33.96800000     -72.18120000
C      -46.98510000     -33.14080000     -70.25640000
C      -47.71580000     -32.35120000     -69.46890000
C      -46.12840000     -34.01300000     -69.38340000
H      -48.60330000     -31.91240000     -69.94230000
C      -46.29660000     -33.79180000     -68.00760000
C      -45.02530000     -34.96040000     -69.62780000
C      -44.55110000     -35.43040000     -68.44170000
S      -47.59800000     -32.64840000     -67.70210000
S      -45.17990000     -34.68390000     -66.96070000
H      -43.69350000     -36.09500000     -68.38460000
