40
Properties=species:S:1:pos:R:3 #=T CELL(abcABC):=T 1.889726e+02=T 90.00000=T Traj:=T positionsangstrom=T Step:=T 0=T Bead:=T pbc="F F F"
C      -44.01080000     -33.85890000     -75.48280000
C      -43.53220000     -33.49000000     -74.19480000
C      -44.09140000     -32.35310000     -73.58610000
C      -45.03870000     -31.53860000     -74.19380000
C      -45.58120000     -31.98400000     -75.44390000
C      -45.00800000     -33.06650000     -76.15670000
H      -43.49120000     -34.65370000     -76.06690000
H      -43.42070000     -31.95840000     -72.72640000
H      -46.48900000     -31.47280000     -75.81570000
H      -45.30000000     -33.25790000     -77.14370000
C      -45.51800000     -30.25830000     -73.49330000
H      -46.25540000     -29.70770000     -74.12430000
H      -44.65610000     -29.58490000     -73.42490000
C      -42.32640000     -34.16810000     -73.51780000
H      -41.52730000     -34.24070000     -74.26870000
H      -41.99590000     -33.55450000     -72.64360000
S      -46.14570000     -30.40680000     -71.73540000
S      -42.65630000     -35.89670000     -73.06630000
C      -47.62170000     -31.61700000     -71.88890000
H      -48.46070000     -31.19870000     -71.29750000
H      -47.92680000     -31.47100000     -72.89610000
C      -43.55430000     -35.98910000     -71.46380000
H      -42.87780000     -36.03070000     -70.56190000
H      -44.02210000     -36.95300000     -71.33660000
C      -44.69730000     -35.04130000     -71.24370000
H      -44.52370000     -34.06860000     -71.63120000
H      -45.61820000     -35.34370000     -71.87590000
C      -47.41090000     -33.10470000     -71.47740000
H      -46.52750000     -33.42660000     -72.08220000
H      -48.22350000     -33.73920000     -71.89850000
C      -47.21530000     -33.17030000     -69.96300000
C      -47.99250000     -32.45240000     -69.09330000
C      -46.20310000     -33.96550000     -69.31310000
H      -48.82690000     -31.86430000     -69.17800000
C      -46.23050000     -33.91100000     -67.94000000
C      -45.14160000     -34.87010000     -69.81550000
C      -44.46340000     -35.38010000     -68.74320000
S      -47.39210000     -32.68750000     -67.40530000
S      -45.04920000     -34.85070000     -67.11810000
H      -43.62730000     -36.07820000     -68.76580000
