40
Properties=species:S:1:pos:R:3 #=T CELL(abcABC):=T 1.889726e+02=T 90.00000=T Traj:=T positionsangstrom=T Step:=T 0=T Bead:=T pbc="F F F"
C      -46.91910000     -34.04670000     -68.38760000
C      -47.73650000     -34.30420000     -69.54180000
C      -48.25430000     -33.29470000     -70.28410000
C      -48.02380000     -31.96200000     -70.03390000
C      -47.44310000     -31.67110000     -68.81020000
C      -46.87830000     -32.71310000     -68.05810000
H      -46.37790000     -34.86780000     -67.86670000
H      -48.92380000     -33.51080000     -71.16120000
H      -47.29650000     -30.58420000     -68.62670000
H      -46.28600000     -32.38080000     -67.22250000
C      -48.44320000     -30.95410000     -71.04470000
H      -48.96400000     -30.17650000     -70.50570000
H      -49.12550000     -31.50770000     -71.72530000
C      -48.05050000     -35.75230000     -69.95010000
H      -47.51980000     -36.57030000     -69.37250000
H      -49.04180000     -36.06000000     -69.61370000
S      -47.03040000     -29.94270000     -71.85210000
S      -48.04680000     -36.10620000     -71.72320000
C      -45.85420000     -31.23790000     -72.30560000
H      -46.41750000     -32.15750000     -72.62200000
H      -45.40750000     -30.86860000     -73.18950000
C      -46.31720000     -36.09360000     -72.06170000
H      -46.12830000     -36.28220000     -73.11710000
H      -45.84000000     -37.02240000     -71.60740000
C      -45.60100000     -34.81070000     -71.63160000
H      -46.19840000     -33.91680000     -71.95010000
H      -45.60580000     -34.85240000     -70.52740000
C      -44.87940000     -31.66330000     -71.18860000
H      -45.42410000     -32.39260000     -70.54890000
H      -44.77690000     -30.72160000     -70.64580000
C      -43.50360000     -32.14670000     -71.54900000
C      -42.33710000     -31.40540000     -71.47820000
C      -43.35650000     -33.51720000     -72.04970000
H      -42.13580000     -30.36360000     -71.18480000
C      -41.98350000     -33.80350000     -72.28280000
C      -44.18780000     -34.68460000     -72.13280000
C      -43.44200000     -35.82420000     -72.49440000
S      -40.99110000     -32.37000000     -72.14160000
S      -41.66320000     -35.47000000     -72.80480000
H      -43.77140000     -36.84570000     -72.56840000
