40
Properties=species:S:1:pos:R:3 #=T CELL(abcABC):=T 1.889726e+02=T 90.00000=T Traj:=T positionsangstrom=T Step:=T 0=T Bead:=T pbc="F F F"
C      -44.25180000     -34.17620000     -75.14850000
C      -43.45110000     -33.69960000     -74.10070000
C      -43.76890000     -32.42330000     -73.59070000
C      -44.86690000     -31.66650000     -74.04490000
C      -45.65540000     -32.19850000     -75.07800000
C      -45.38690000     -33.44400000     -75.57270000
H      -44.05190000     -35.09770000     -75.67900000
H      -43.25960000     -32.09610000     -72.65990000
H      -46.51820000     -31.69680000     -75.53810000
H      -45.92400000     -33.80070000     -76.37380000
C      -45.16040000     -30.33470000     -73.39840000
H      -45.46710000     -29.68740000     -74.21710000
H      -44.19060000     -29.92970000     -73.02140000
C      -42.22120000     -34.35190000     -73.53600000
H      -41.56480000     -34.50350000     -74.32140000
H      -41.70800000     -33.71270000     -72.78480000
S      -46.41660000     -30.29110000     -72.00770000
S      -42.60070000     -36.11330000     -72.89070000
C      -47.52370000     -31.70960000     -72.32950000
H      -48.53960000     -31.35850000     -71.85900000
H      -47.81020000     -31.81530000     -73.42720000
C      -43.17000000     -35.87770000     -71.11730000
H      -42.36040000     -35.27770000     -70.49850000
H      -43.26450000     -36.87450000     -70.70110000
C      -44.39600000     -34.95230000     -71.07120000
H      -44.26630000     -33.98270000     -71.56850000
H      -45.24380000     -35.31190000     -71.56630000
C      -47.02660000     -33.04860000     -71.77140000
H      -46.12090000     -33.38930000     -72.25490000
H      -47.78200000     -33.78580000     -72.11190000
C      -47.08570000     -33.06480000     -70.23180000
C      -48.07130000     -32.46650000     -69.44780000
C      -46.18050000     -33.86130000     -69.42950000
H      -48.96070000     -31.92350000     -69.68030000
C      -46.41480000     -33.77030000     -68.05970000
C      -44.92930000     -34.64250000     -69.69060000
C      -44.37780000     -35.07910000     -68.46660000
S      -47.72750000     -32.67020000     -67.75990000
S      -45.23920000     -34.52380000     -67.04940000
H      -43.42260000     -35.56950000     -68.33610000
