40
Properties=species:S:1:pos:R:3 #=T CELL(abcABC):=T 1.889726e+02=T 90.00000=T Traj:=T positionsangstrom=T Step:=T 0=T Bead:=T pbc="F F F"
C      -44.07310000     -34.37730000     -75.03180000
C      -43.34280000     -33.72780000     -73.99560000
C      -43.73780000     -32.51900000     -73.50450000
C      -44.86270000     -31.82420000     -73.96510000
C      -45.53620000     -32.45540000     -75.03750000
C      -45.12970000     -33.67000000     -75.57670000
H      -43.84310000     -35.30330000     -75.45690000
H      -43.27520000     -32.15090000     -72.57920000
H      -46.38600000     -31.93190000     -75.48650000
H      -45.73920000     -34.06650000     -76.34050000
C      -45.21140000     -30.41590000     -73.67290000
H      -45.79720000     -29.92830000     -74.46260000
H      -44.35640000     -29.73990000     -73.45550000
C      -42.16060000     -34.43470000     -73.28510000
H      -41.28640000     -34.54980000     -73.91530000
H      -41.93300000     -33.85650000     -72.31060000
S      -46.25890000     -30.25930000     -72.12590000
S      -42.64480000     -36.16630000     -72.78870000
C      -47.62210000     -31.51630000     -72.30160000
H      -48.39100000     -31.08370000     -71.68420000
H      -48.05650000     -31.42340000     -73.24040000
C      -43.21140000     -35.70130000     -71.10660000
H      -42.37760000     -35.16400000     -70.65230000
H      -43.33020000     -36.59390000     -70.62810000
C      -44.54690000     -34.96790000     -71.12240000
H      -44.41900000     -33.96980000     -71.68290000
H      -45.40990000     -35.43750000     -71.72400000
C      -47.26060000     -32.95300000     -71.77650000
H      -46.37680000     -33.36580000     -72.18970000
H      -48.01960000     -33.73790000     -71.99300000
C      -47.13650000     -33.01450000     -70.25880000
C      -48.14180000     -32.46070000     -69.46120000
C      -46.21100000     -33.76030000     -69.46040000
H      -48.83730000     -31.68750000     -69.71990000
C      -46.35550000     -33.53140000     -68.06930000
C      -45.13770000     -34.66930000     -69.72280000
C      -44.46170000     -35.11940000     -68.58360000
S      -47.77160000     -32.56970000     -67.72680000
S      -45.20230000     -34.47330000     -67.14210000
H      -43.60240000     -35.76740000     -68.48760000
