40
Properties=species:S:1:pos:R:3 #=T CELL(abcABC):=T 1.889726e+02=T 90.00000=T Traj:=T positionsangstrom=T Step:=T 0=T Bead:=T pbc="F F F"
C      -48.42810000     -32.95540000     -68.35850000
C      -48.37970000     -33.68640000     -69.52480000
C      -48.35240000     -33.05340000     -70.81950000
C      -48.16530000     -31.64960000     -70.78160000
C      -48.25530000     -30.97320000     -69.62790000
C      -48.41370000     -31.52800000     -68.41150000
H      -48.49970000     -33.47450000     -67.38410000
H      -48.44000000     -33.55150000     -71.77130000
H      -48.27400000     -29.88010000     -69.67980000
H      -48.58960000     -30.99810000     -67.49050000
C      -48.05290000     -30.83250000     -72.07600000
H      -48.84840000     -30.12330000     -72.08370000
H      -48.43130000     -31.53000000     -72.85250000
C      -48.52100000     -35.18860000     -69.45470000
H      -48.39840000     -35.51100000     -68.42410000
H      -49.55960000     -35.43930000     -69.66840000
S      -46.47540000     -29.98080000     -72.45440000
S      -47.57070000     -36.26060000     -70.63990000
C      -45.18120000     -31.36610000     -72.46690000
H      -45.45520000     -32.11550000     -73.13240000
H      -44.27570000     -31.01310000     -72.93570000
C      -46.00530000     -35.37690000     -70.93730000
H      -45.30530000     -35.99670000     -70.43670000
H      -46.15190000     -34.46190000     -70.53340000
C      -45.58120000     -35.20780000     -72.44890000
H      -45.71030000     -36.07810000     -72.96720000
H      -46.06750000     -34.45350000     -72.98930000
C      -44.84150000     -32.02470000     -71.11440000
H      -45.61130000     -32.78320000     -70.83070000
H      -44.87880000     -31.31120000     -70.32870000
C      -43.48360000     -32.63800000     -71.20370000
C      -42.23510000     -32.08240000     -70.95210000
C      -43.22080000     -33.91390000     -71.96330000
H      -42.24000000     -31.11240000     -70.49610000
C      -41.83680000     -34.15280000     -72.15530000
C      -44.06390000     -34.97200000     -72.51780000
C      -43.29770000     -35.96780000     -73.12210000
S      -40.86740000     -32.95400000     -71.37860000
S      -41.55630000     -35.69910000     -72.94170000
H      -43.65670000     -36.85150000     -73.67860000
