40
Properties=species:S:1:pos:R:3 #=T CELL(abcABC):=T 1.889726e+02=T 90.00000=T Traj:=T positionsangstrom=T Step:=T 0=T Bead:=T pbc="F F F"
C      -45.75450000     -33.01670000     -66.96970000
C      -45.37610000     -34.15120000     -67.73020000
C      -44.20920000     -34.16840000     -68.54020000
C      -43.34600000     -33.10900000     -68.45300000
C      -43.65340000     -32.01050000     -67.67630000
C      -44.91150000     -31.93250000     -67.03850000
H      -46.65430000     -32.77530000     -66.40630000
H      -43.91310000     -35.03610000     -69.11760000
H      -43.04850000     -31.14600000     -67.71250000
H      -45.21490000     -30.94220000     -66.55220000
C      -41.96230000     -33.34030000     -69.08610000
H      -41.55020000     -34.09970000     -68.40190000
H      -41.32570000     -32.45070000     -69.07570000
C      -46.24060000     -35.36180000     -67.68490000
H      -45.60050000     -36.26670000     -67.56090000
H      -46.75300000     -35.32810000     -66.69980000
S      -42.10400000     -34.11190000     -70.77910000
S      -47.33940000     -35.74980000     -69.07690000
C      -43.19200000     -33.08370000     -71.85080000
H      -44.18600000     -32.81170000     -71.39700000
H      -42.64950000     -32.20630000     -72.27180000
C      -47.12700000     -34.25340000     -70.23470000
H      -46.49020000     -33.48330000     -69.76640000
H      -48.18150000     -33.84280000     -70.38730000
C      -46.48920000     -34.57910000     -71.59420000
H      -45.41950000     -34.82000000     -71.49390000
H      -46.93810000     -35.51510000     -71.93820000
C      -43.42260000     -33.92970000     -73.19300000
H      -43.93800000     -34.87500000     -72.99130000
H      -42.57190000     -34.08140000     -73.81480000
C      -44.46940000     -33.20460000     -73.98370000
C      -44.13140000     -32.68930000     -75.22570000
C      -45.83380000     -32.97730000     -73.61140000
H      -43.12880000     -32.79120000     -75.64150000
C      -46.48400000     -32.20120000     -74.55020000
C      -46.71570000     -33.44830000     -72.52030000
C      -47.96520000     -32.88240000     -72.66710000
S      -45.52740000     -31.86190000     -75.97200000
S      -48.13270000     -31.85270000     -74.03410000
H      -48.90240000     -33.14260000     -72.05870000
