40
Properties=species:S:1:pos:R:3 #=T CELL(abcABC):=T 1.889726e+02=T 90.00000=T Traj:=T positionsangstrom=T Step:=T 0=T Bead:=T pbc="F F F"
C      -45.71100000     -32.91740000     -67.16340000
C      -45.30430000     -34.21120000     -67.61170000
C      -44.08000000     -34.33450000     -68.24910000
C      -43.25760000     -33.22830000     -68.46880000
C      -43.71180000     -31.94700000     -68.05850000
C      -44.93510000     -31.78260000     -67.41730000
H      -46.70410000     -32.76930000     -66.79790000
H      -43.85070000     -35.31970000     -68.67520000
H      -43.21540000     -30.98470000     -68.22400000
H      -45.18850000     -30.75460000     -67.06250000
C      -41.91450000     -33.51300000     -69.14950000
H      -41.07620000     -34.05800000     -68.68640000
H      -41.45500000     -32.52980000     -69.36250000
C      -46.38290000     -35.36000000     -67.60130000
H      -45.88950000     -36.11650000     -66.95350000
H      -47.23770000     -34.95660000     -67.09140000
S      -42.17840000     -34.54120000     -70.70610000
S      -46.89090000     -35.94080000     -69.35420000
C      -43.02100000     -33.25900000     -71.72820000
H      -43.71950000     -32.73050000     -71.03200000
H      -42.21510000     -32.43490000     -71.89070000
C      -47.39620000     -34.41670000     -70.29970000
H      -47.44670000     -33.56520000     -69.55360000
H      -48.44340000     -34.64710000     -70.65870000
C      -46.40490000     -34.13650000     -71.44590000
H      -45.43770000     -33.82780000     -71.12400000
H      -46.26420000     -35.14390000     -71.91470000
C      -43.59340000     -33.96010000     -72.95830000
H      -43.89110000     -34.96010000     -72.57110000
H      -42.73860000     -34.20340000     -73.57620000
C      -44.59040000     -33.23430000     -73.82430000
C      -44.20250000     -32.73060000     -75.04530000
C      -45.94710000     -32.86780000     -73.57070000
H      -43.15900000     -32.91480000     -75.32610000
C      -46.54500000     -32.02280000     -74.46940000
C      -46.94660000     -33.22370000     -72.51520000
C      -48.22110000     -32.69490000     -72.71180000
S      -45.40630000     -31.68460000     -75.78770000
S      -48.27580000     -31.62480000     -74.15140000
H      -49.23030000     -32.80180000     -72.25120000
