40
Properties=species:S:1:pos:R:3 #=T CELL(abcABC):=T 1.889726e+02=T 90.00000=T Traj:=T positionsangstrom=T Step:=T 0=T Bead:=T pbc="F F F"
C      -45.87830000     -33.01080000     -67.03670000
C      -45.41430000     -34.22310000     -67.49210000
C      -44.23080000     -34.35640000     -68.22980000
C      -43.41150000     -33.26100000     -68.46400000
C      -43.82410000     -32.02840000     -67.84700000
C      -45.05610000     -31.91780000     -67.27640000
H      -46.83630000     -32.78660000     -66.58580000
H      -43.88120000     -35.29340000     -68.61180000
H      -43.17290000     -31.11600000     -67.99990000
H      -45.43740000     -30.92730000     -66.94580000
C      -42.05210000     -33.39020000     -69.13280000
H      -41.41640000     -34.15680000     -68.64570000
H      -41.55970000     -32.43310000     -69.09720000
C      -46.34050000     -35.39480000     -67.51290000
H      -45.81740000     -36.26530000     -67.10870000
H      -47.26320000     -35.27560000     -66.98280000
S      -42.10640000     -34.28790000     -70.77710000
S      -46.69480000     -35.84480000     -69.25440000
C      -43.10170000     -33.19730000     -71.92850000
H      -43.83750000     -32.71210000     -71.38580000
H      -42.43270000     -32.43870000     -72.30940000
C      -47.19450000     -34.18450000     -69.98840000
H      -46.84530000     -33.38000000     -69.39940000
H      -48.26140000     -34.16720000     -70.11400000
C      -46.49580000     -34.23210000     -71.40620000
H      -45.41340000     -34.23250000     -71.09770000
H      -46.62400000     -35.24270000     -71.83850000
C      -43.68020000     -34.05010000     -73.05500000
H      -44.44250000     -34.79440000     -72.56500000
H      -42.79390000     -34.54950000     -73.53990000
C      -44.54310000     -33.22960000     -73.98190000
C      -44.21280000     -32.60680000     -75.19800000
C      -45.87870000     -32.86380000     -73.60020000
H      -43.19930000     -32.69760000     -75.53860000
C      -46.47860000     -32.03970000     -74.49970000
C      -46.79030000     -33.20570000     -72.47630000
C      -48.07390000     -32.69180000     -72.69210000
S      -45.52180000     -31.77510000     -75.92580000
S      -48.20890000     -31.85030000     -74.24460000
H      -49.04850000     -32.79120000     -72.14570000
