40
Properties=species:S:1:pos:R:3 #=T CELL(abcABC):=T 1.889726e+02=T 90.00000=T Traj:=T positionsangstrom=T Step:=T 0=T Bead:=T pbc="F F F"
C      -44.34310000     -34.68470000     -74.96930000
C      -43.44240000     -33.95900000     -74.17560000
C      -43.79220000     -32.62620000     -73.79110000
C      -44.95560000     -31.91640000     -74.20430000
C      -45.65790000     -32.56670000     -75.24410000
C      -45.34750000     -33.91320000     -75.55210000
H      -44.17070000     -35.68250000     -75.25960000
H      -43.21350000     -32.11960000     -73.01140000
H      -46.58080000     -32.12420000     -75.65680000
H      -46.07510000     -34.33950000     -76.23130000
C      -45.35360000     -30.55610000     -73.77510000
H      -46.15990000     -29.98820000     -74.30720000
H      -44.53420000     -29.84940000     -73.67150000
C      -42.24880000     -34.60640000     -73.55900000
H      -41.61890000     -35.09200000     -74.37230000
H      -41.68530000     -33.99240000     -72.91660000
S      -45.93840000     -30.62850000     -72.04990000
S      -42.75190000     -36.15530000     -72.70010000
C      -47.48550000     -31.58390000     -72.33260000
H      -48.31570000     -31.10000000     -71.85500000
H      -47.61220000     -31.67080000     -73.48050000
C      -43.13020000     -35.46650000     -71.04320000
H      -42.39940000     -34.69210000     -70.87400000
H      -42.95150000     -36.36480000     -70.31650000
C      -44.58280000     -35.03570000     -70.92400000
H      -44.77550000     -34.21580000     -71.61490000
H      -45.18140000     -35.86370000     -71.20600000
C      -47.41430000     -33.05860000     -71.75310000
H      -46.64600000     -33.59620000     -72.29460000
H      -48.35980000     -33.49980000     -72.04030000
C      -47.14010000     -32.96970000     -70.23430000
C      -47.98460000     -32.21840000     -69.46460000
C      -46.14670000     -33.58680000     -69.39700000
H      -48.82640000     -31.74830000     -69.87590000
C      -46.35780000     -33.36900000     -68.03230000
C      -45.11920000     -34.59460000     -69.60050000
C      -44.47660000     -34.98510000     -68.42600000
S      -47.56700000     -32.13990000     -67.74360000
S      -45.26350000     -34.26820000     -67.04560000
H      -43.67860000     -35.72660000     -68.29630000
