40
Properties=species:S:1:pos:R:3 #=T CELL(abcABC):=T 1.889726e+02=T 90.00000=T Traj:=T positionsangstrom=T Step:=T 0=T Bead:=T pbc="F F F"
C      -45.16470000     -34.67890000     -74.61500000
C      -45.41190000     -33.32180000     -74.64070000
C      -46.74150000     -32.90230000     -74.32800000
C      -47.70590000     -33.79840000     -73.93890000
C      -47.39480000     -35.19450000     -73.85980000
C      -46.12480000     -35.62740000     -74.27910000
H      -44.14700000     -34.94180000     -74.81210000
H      -46.90320000     -31.85900000     -74.19310000
H      -48.17880000     -35.87860000     -73.58560000
H      -45.84970000     -36.72600000     -74.00580000
C      -49.08360000     -33.24020000     -73.39390000
H      -49.77820000     -34.11170000     -73.27850000
H      -49.44100000     -32.57180000     -74.19460000
C      -44.38250000     -32.34720000     -75.03580000
H      -44.13090000     -32.48320000     -76.10380000
H      -44.71440000     -31.31330000     -74.73110000
S      -49.00080000     -32.06490000     -71.92260000
S      -42.79500000     -32.66210000     -74.10870000
C      -48.02320000     -33.00830000     -70.58040000
H      -48.34880000     -32.66630000     -69.58800000
H      -48.27480000     -34.07790000     -70.65260000
C      -43.32990000     -33.19650000     -72.43200000
H      -42.68330000     -34.11350000     -72.27370000
H      -44.29700000     -33.71300000     -72.36850000
C      -43.22540000     -32.17490000     -71.34270000
H      -42.21910000     -31.64340000     -71.45390000
H      -43.98370000     -31.36740000     -71.52750000
C      -46.49770000     -32.84090000     -70.65920000
H      -46.37390000     -31.73190000     -70.67050000
H      -46.14160000     -33.23760000     -71.61370000
C      -45.82950000     -33.46310000     -69.49320000
C      -46.45160000     -34.15990000     -68.45040000
C      -44.42890000     -33.23020000     -69.22990000
H      -47.47250000     -34.53560000     -68.34930000
C      -44.05520000     -33.77130000     -67.99040000
C      -43.30350000     -32.71620000     -69.92110000
C      -42.12150000     -32.86240000     -69.21180000
S      -45.36150000     -34.47240000     -67.09470000
S      -42.39790000     -33.75290000     -67.70130000
H      -41.17470000     -32.33630000     -69.55040000
