40
Properties=species:S:1:pos:R:3 #=T CELL(abcABC):=T 1.889726e+02=T 90.00000=T Traj:=T positionsangstrom=T Step:=T 0=T Bead:=T pbc="F F F"
C      -43.95560000     -34.90570000     -74.82930000
C      -43.31580000     -34.10580000     -73.89910000
C      -43.82870000     -32.87390000     -73.54430000
C      -44.92140000     -32.31210000     -74.27030000
C      -45.49300000     -33.03250000     -75.32490000
C      -45.07590000     -34.34790000     -75.52940000
H      -43.64710000     -35.83900000     -75.05340000
H      -43.41640000     -32.19140000     -72.82760000
H      -46.27450000     -32.55370000     -76.00730000
H      -45.58920000     -34.91610000     -76.35700000
C      -45.21940000     -30.86820000     -74.08600000
H      -45.85270000     -30.44840000     -74.85760000
H      -44.28710000     -30.25750000     -74.07540000
C      -42.14660000     -34.63060000     -73.07060000
H      -41.27460000     -34.69510000     -73.69390000
H      -41.99420000     -33.85270000     -72.23070000
S      -45.98080000     -30.46990000     -72.42000000
S      -42.40570000     -36.35610000     -72.34280000
C      -47.57310000     -31.57240000     -72.54210000
H      -48.45330000     -31.09570000     -72.11810000
H      -47.68250000     -31.73260000     -73.53890000
C      -43.36190000     -35.81310000     -70.77490000
H      -42.54930000     -35.36180000     -70.16060000
H      -43.61500000     -36.80520000     -70.35590000
C      -44.55390000     -34.84990000     -71.00500000
H      -44.27770000     -33.98430000     -71.56400000
H      -45.28730000     -35.34780000     -71.67680000
C      -47.43870000     -32.85450000     -71.83710000
H      -46.55570000     -33.38780000     -72.25580000
H      -48.26360000     -33.56350000     -72.15940000
C      -47.36820000     -32.85630000     -70.31000000
C      -48.21310000     -32.10760000     -69.53990000
C      -46.34820000     -33.54640000     -69.47240000
H      -49.00310000     -31.42150000     -69.94810000
C      -46.53170000     -33.25010000     -68.10310000
C      -45.15560000     -34.34040000     -69.71870000
C      -44.51430000     -34.48230000     -68.47100000
S      -47.93990000     -32.19400000     -67.75560000
S      -45.21550000     -33.74820000     -67.08210000
H      -43.65900000     -35.14730000     -68.24100000
