40
Properties=species:S:1:pos:R:3 #=T CELL(abcABC):=T 1.889726e+02=T 90.00000=T Traj:=T positionsangstrom=T Step:=T 0=T Bead:=T pbc="F F F"
C      -43.86590000     -35.08040000     -74.85380000
C      -43.21990000     -34.21510000     -73.93450000
C      -43.73890000     -32.89730000     -73.81140000
C      -44.73130000     -32.37150000     -74.61360000
C      -45.31480000     -33.23530000     -75.57840000
C      -44.86650000     -34.57260000     -75.64760000
H      -43.48820000     -36.13710000     -75.00170000
H      -43.23690000     -32.22400000     -73.09690000
H      -46.02850000     -32.93640000     -76.28230000
H      -45.22450000     -35.13030000     -76.42920000
C      -45.17790000     -30.96840000     -74.49290000
H      -46.03270000     -30.69230000     -75.13960000
H      -44.37320000     -30.28810000     -74.70080000
C      -42.18820000     -34.72860000     -72.97940000
H      -41.20090000     -34.97510000     -73.39080000
H      -41.86870000     -34.06220000     -72.21700000
S      -45.72720000     -30.53430000     -72.75420000
S      -42.73830000     -36.30550000     -72.11860000
C      -47.21260000     -31.55420000     -72.57300000
H      -47.92470000     -30.97180000     -72.10240000
H      -47.61080000     -31.85940000     -73.53930000
C      -43.16100000     -35.45370000     -70.55350000
H      -42.30820000     -34.88080000     -70.13360000
H      -43.25790000     -36.20750000     -69.75840000
C      -44.43150000     -34.58740000     -70.63510000
H      -44.22330000     -33.77590000     -71.34830000
H      -45.17540000     -35.14670000     -71.06930000
C      -47.09550000     -32.98130000     -71.84170000
H      -46.10850000     -33.31170000     -72.09140000
H      -47.84450000     -33.70420000     -72.30710000
C      -47.23590000     -32.80070000     -70.29370000
C      -48.35940000     -32.30820000     -69.70540000
C      -46.22690000     -33.25120000     -69.36360000
H      -49.29600000     -32.13490000     -70.23580000
C      -46.63820000     -33.01620000     -68.02850000
C      -45.01520000     -34.10140000     -69.36370000
C      -44.64150000     -34.43840000     -68.12260000
S      -48.26400000     -32.28270000     -67.87980000
S      -45.60470000     -33.68500000     -66.83520000
H      -43.84300000     -35.15040000     -67.91370000
