40
Properties=species:S:1:pos:R:3 #=T CELL(abcABC):=T 1.889726e+02=T 90.00000=T Traj:=T positionsangstrom=T Step:=T 0=T Bead:=T pbc="F F F"
C      -43.89940000     -35.24090000     -74.83680000
C      -43.05290000     -34.49390000     -73.94570000
C      -43.33690000     -33.09820000     -73.74340000
C      -44.38020000     -32.47740000     -74.33950000
C      -45.25390000     -33.26100000     -75.14320000
C      -44.97070000     -34.57530000     -75.43640000
H      -43.65000000     -36.27870000     -74.97120000
H      -42.57940000     -32.53810000     -73.20850000
H      -46.17280000     -32.84200000     -75.60300000
H      -45.49710000     -35.09360000     -76.25860000
C      -44.72850000     -31.02070000     -74.18770000
H      -45.36840000     -30.64650000     -75.02420000
H      -43.89680000     -30.37520000     -74.06710000
C      -41.90070000     -35.10800000     -73.18270000
H      -41.20380000     -35.82360000     -73.73200000
H      -41.14220000     -34.38950000     -72.79030000
S      -45.63970000     -30.72070000     -72.51710000
S      -42.61360000     -36.18110000     -71.76740000
C      -47.15510000     -31.71800000     -72.76230000
H      -48.00160000     -31.16990000     -72.51480000
H      -47.23770000     -32.00700000     -73.83450000
C      -42.93690000     -34.84450000     -70.49150000
H      -42.17660000     -34.08050000     -70.47000000
H      -42.84820000     -35.31520000     -69.49600000
C      -44.23000000     -34.16080000     -70.66860000
H      -44.20130000     -33.16660000     -71.20270000
H      -44.93370000     -34.79210000     -71.12720000
C      -47.07560000     -33.06070000     -72.03100000
H      -46.11300000     -33.60370000     -72.15690000
H      -47.84140000     -33.66590000     -72.51970000
C      -47.35640000     -33.00050000     -70.50090000
C      -48.57510000     -32.52630000     -70.10870000
C      -46.36950000     -33.26280000     -69.46930000
H      -49.43850000     -32.26770000     -70.76380000
C      -46.98200000     -32.96360000     -68.21110000
C      -45.09440000     -33.85530000     -69.33340000
C      -44.68700000     -34.06630000     -68.02290000
S      -48.67280000     -32.45620000     -68.33900000
S      -45.92640000     -33.41600000     -66.93400000
H      -43.79200000     -34.54430000     -67.70980000
