40
Properties=species:S:1:pos:R:3 #=T CELL(abcABC):=T 1.889726e+02=T 90.00000=T Traj:=T positionsangstrom=T Step:=T 0=T Bead:=T pbc="F F F"
C      -45.24900000     -34.75460000     -74.72450000
C      -45.40830000     -33.35980000     -74.59820000
C      -46.62910000     -32.83240000     -74.18090000
C      -47.69110000     -33.67780000     -73.78760000
C      -47.39680000     -35.08380000     -73.75690000
C      -46.25350000     -35.64920000     -74.29030000
H      -44.22140000     -34.97290000     -75.11980000
H      -46.86010000     -31.78160000     -74.29040000
H      -48.22360000     -35.73270000     -73.36720000
H      -46.16010000     -36.75240000     -74.45920000
C      -49.04920000     -33.20710000     -73.41670000
H      -49.77290000     -33.98340000     -73.12230000
H      -49.65280000     -32.69720000     -74.12530000
C      -44.34390000     -32.42080000     -75.03510000
H      -44.17330000     -32.48790000     -76.10600000
H      -44.75790000     -31.43470000     -74.93940000
S      -49.01220000     -32.11620000     -71.88760000
S      -42.67270000     -32.57610000     -74.21380000
C      -48.13520000     -33.14470000     -70.68010000
H      -48.52200000     -32.94710000     -69.65680000
H      -48.56330000     -34.14250000     -70.84630000
C      -43.23500000     -33.33640000     -72.46580000
H      -42.39360000     -33.98520000     -72.25380000
H      -44.19860000     -33.89020000     -72.55660000
C      -43.28300000     -32.29340000     -71.37190000
H      -42.48180000     -31.53830000     -71.46240000
H      -44.15930000     -31.71760000     -71.56890000
C      -46.63610000     -33.00530000     -70.68370000
H      -46.32050000     -31.96460000     -70.78960000
H      -46.27770000     -33.53090000     -71.57710000
C      -45.82370000     -33.44620000     -69.45520000
C      -46.51050000     -33.92120000     -68.37580000
C      -44.39670000     -33.38530000     -69.25660000
H      -47.59960000     -34.01550000     -68.33890000
C      -44.05630000     -33.73770000     -67.95430000
C      -43.26860000     -32.86470000     -69.98500000
C      -42.11630000     -32.93430000     -69.24150000
S      -45.44020000     -34.51260000     -67.09940000
S      -42.31010000     -33.52820000     -67.64070000
H      -41.13010000     -32.50530000     -69.61780000
