40
Properties=species:S:1:pos:R:3 #=T CELL(abcABC):=T 1.889726e+02=T 90.00000=T Traj:=T positionsangstrom=T Step:=T 0=T Bead:=T pbc="F F F"
C      -44.28230000     -35.82080000     -73.46790000
C      -44.10870000     -34.49060000     -73.86830000
C      -42.96300000     -33.84540000     -73.57680000
C      -42.06180000     -34.42510000     -72.67950000
C      -42.33200000     -35.60350000     -72.03760000
C      -43.35490000     -36.36640000     -72.56010000
H      -45.04410000     -36.44670000     -73.91430000
H      -42.76950000     -32.88210000     -73.93470000
H      -41.67730000     -35.94170000     -71.23770000
H      -43.55100000     -37.33690000     -72.14620000
C      -40.95290000     -33.42160000     -72.10320000
H      -40.13760000     -33.21740000     -72.83050000
H      -40.46740000     -33.81680000     -71.21860000
C      -45.09290000     -33.82410000     -74.93890000
H      -44.84400000     -32.71510000     -74.94290000
H      -44.81200000     -34.29820000     -75.95230000
S      -41.85560000     -31.83340000     -71.59030000
S      -46.84190000     -34.34360000     -74.70560000
C      -43.07240000     -32.21150000     -70.25450000
H      -42.50280000     -32.65770000     -69.48530000
H      -43.41120000     -31.25260000     -69.89640000
C      -47.09250000     -34.13030000     -72.92460000
H      -46.20440000     -34.53260000     -72.41160000
H      -47.93360000     -34.79790000     -72.74230000
C      -47.25640000     -32.66400000     -72.47180000
H      -46.28390000     -32.20460000     -72.68440000
H      -48.03410000     -32.19340000     -73.10170000
C      -44.27950000     -33.04970000     -70.63740000
H      -44.00000000     -34.02900000     -71.02440000
H      -44.73300000     -32.57060000     -71.50190000
C      -45.39110000     -33.04010000     -69.61170000
C      -45.08140000     -32.99640000     -68.23560000
C      -46.81930000     -32.84220000     -69.85400000
H      -44.09690000     -33.33520000     -67.84820000
C      -47.53810000     -32.76880000     -68.66540000
C      -47.62380000     -32.52200000     -70.98520000
C      -48.92400000     -32.19710000     -70.65070000
S      -46.57100000     -33.01050000     -67.19640000
S      -49.17730000     -32.17060000     -68.93600000
H      -49.68610000     -31.88820000     -71.36810000
