40
Properties=species:S:1:pos:R:3 #=T CELL(abcABC):=T 1.889726e+02=T 90.00000=T Traj:=T positionsangstrom=T Step:=T 0=T Bead:=T pbc="F F F"
C      -43.40330000     -36.12590000     -73.87290000
C      -43.71440000     -34.74820000     -74.04090000
C      -43.05730000     -33.77760000     -73.27550000
C      -42.14020000     -34.15870000     -72.29500000
C      -41.90320000     -35.53770000     -72.10720000
C      -42.51320000     -36.55480000     -72.85390000
H      -43.88060000     -36.84150000     -74.56670000
H      -43.19380000     -32.67400000     -73.49000000
H      -41.16650000     -35.76770000     -71.32220000
H      -42.31030000     -37.65140000     -72.72800000
C      -41.45830000     -33.14450000     -71.42610000
H      -40.44170000     -32.92240000     -71.67890000
H      -41.40070000     -33.54660000     -70.38460000
C      -44.71160000     -34.26390000     -75.09360000
H      -44.58390000     -33.23230000     -75.32840000
H      -44.58910000     -34.93770000     -75.95800000
S      -42.15300000     -31.45340000     -71.30940000
S      -46.48440000     -34.54970000     -74.68140000
C      -43.50080000     -31.55040000     -70.12960000
H      -43.18990000     -31.50470000     -69.09110000
H      -44.11450000     -30.64470000     -70.31210000
C      -46.51910000     -34.10470000     -72.84820000
H      -45.54760000     -34.35070000     -72.54530000
H      -47.17440000     -34.73290000     -72.33620000
C      -46.81780000     -32.63160000     -72.53280000
H      -45.92580000     -31.99440000     -72.54530000
H      -47.58860000     -32.26730000     -73.28990000
C      -44.36630000     -32.87700000     -70.28080000
H      -43.64090000     -33.60480000     -69.97930000
H      -44.67390000     -33.04880000     -71.32670000
C      -45.56510000     -32.89630000     -69.38030000
C      -45.53830000     -33.12280000     -68.03850000
C      -46.93370000     -32.81860000     -69.88740000
H      -44.59520000     -33.23160000     -67.46580000
C      -47.83880000     -32.82720000     -68.83670000
C      -47.53920000     -32.51720000     -71.17520000
C      -48.89910000     -32.39540000     -71.07300000
S      -47.16030000     -33.09240000     -67.24150000
S      -49.40650000     -32.36100000     -69.40270000
H      -49.57960000     -32.02390000     -71.79400000
