40
Properties=species:S:1:pos:R:3 #=T CELL(abcABC):=T 1.889726e+02=T 90.00000=T Traj:=T positionsangstrom=T Step:=T 0=T Bead:=T pbc="F F F"
C      -46.45350000     -35.79160000     -73.76350000
C      -45.97710000     -34.49700000     -73.49710000
C      -44.77800000     -34.32340000     -72.67710000
C      -44.07270000     -35.44830000     -72.32910000
C      -44.48480000     -36.73930000     -72.68260000
C      -45.63380000     -36.93290000     -73.46830000
H      -47.34000000     -35.97180000     -74.45150000
H      -44.30960000     -33.39460000     -72.43400000
H      -43.90430000     -37.59220000     -72.40640000
H      -46.14720000     -37.82980000     -73.71000000
C      -42.87310000     -35.35280000     -71.30870000
H      -42.48620000     -34.35570000     -71.16010000
H      -42.04720000     -35.89820000     -71.61860000
C      -46.78140000     -33.29420000     -73.82160000
H      -46.30500000     -32.36880000     -73.60150000
H      -47.10790000     -33.41600000     -74.86620000
S      -43.32450000     -36.11400000     -69.59610000
S      -48.39060000     -33.43130000     -72.81520000
C      -44.83930000     -35.15360000     -69.17680000
H      -45.38470000     -34.93840000     -70.08700000
H      -45.50820000     -35.78140000     -68.63200000
C      -47.91410000     -33.93870000     -71.05180000
H      -46.96590000     -34.49690000     -71.08520000
H      -48.77240000     -34.56860000     -70.78280000
C      -47.86230000     -32.72250000     -70.09590000
H      -48.82890000     -32.11370000     -70.22240000
H      -47.86020000     -33.01570000     -69.04310000
C      -44.61920000     -33.76810000     -68.40310000
H      -43.83510000     -33.81670000     -67.64050000
H      -45.58220000     -33.59190000     -67.96340000
C      -44.40600000     -32.59750000     -69.34180000
C      -43.10080000     -32.13970000     -69.40240000
C      -45.30840000     -31.99460000     -70.31820000
H      -42.27330000     -32.51990000     -68.76810000
C      -44.59690000     -31.00220000     -71.03340000
C      -46.73330000     -31.82440000     -70.51830000
C      -47.00930000     -30.82880000     -71.43450000
S      -42.90080000     -30.79260000     -70.60810000
S      -45.67260000     -29.90530000     -71.92040000
H      -47.95630000     -30.52800000     -71.82220000
