40
Properties=species:S:1:pos:R:3 #=T CELL(abcABC):=T 1.889726e+02=T 90.00000=T Traj:=T positionsangstrom=T Step:=T 0=T Bead:=T pbc="F F F"
C      -43.65420000     -36.01550000     -73.81830000
C      -43.77810000     -34.66700000     -74.01820000
C      -43.01240000     -33.75890000     -73.29630000
C      -42.12890000     -34.22020000     -72.37190000
C      -42.05380000     -35.60600000     -72.04550000
C      -42.86560000     -36.49110000     -72.77650000
H      -44.31100000     -36.68390000     -74.40180000
H      -43.17330000     -32.64360000     -73.54290000
H      -41.37030000     -35.94160000     -71.25120000
H      -42.90900000     -37.56630000     -72.53960000
C      -41.29900000     -33.24460000     -71.49180000
H      -40.38450000     -33.07770000     -72.06470000
H      -40.96710000     -33.78340000     -70.57630000
C      -44.78890000     -34.15950000     -75.06020000
H      -44.53430000     -33.07060000     -75.25030000
H      -44.55330000     -34.69710000     -76.00510000
S      -42.06730000     -31.51810000     -71.32120000
S      -46.56080000     -34.43170000     -74.61670000
C      -43.53860000     -31.81980000     -70.25310000
H      -43.30880000     -31.73900000     -69.21510000
H      -44.25700000     -31.01600000     -70.46480000
C      -46.78210000     -34.10500000     -72.83180000
H      -45.80600000     -34.50120000     -72.41210000
H      -47.60470000     -34.77560000     -72.51340000
C      -47.11050000     -32.62180000     -72.55460000
H      -46.27440000     -31.94040000     -72.79740000
H      -47.89430000     -32.39270000     -73.20300000
C      -44.29200000     -33.14970000     -70.52800000
H      -43.65060000     -34.01980000     -70.28980000
H      -44.59130000     -33.29720000     -71.56750000
C      -45.53910000     -33.12270000     -69.60790000
C      -45.40380000     -33.31340000     -68.25940000
C      -46.86350000     -32.72310000     -69.94290000
H      -44.44110000     -33.50080000     -67.86650000
C      -47.65150000     -32.67240000     -68.79620000
C      -47.62920000     -32.45140000     -71.16330000
C      -48.94540000     -32.17050000     -70.90180000
S      -46.87090000     -33.07680000     -67.29890000
S      -49.29400000     -32.28040000     -69.13970000
H      -49.72340000     -31.97960000     -71.61040000
