40
Properties=species:S:1:pos:R:3 #=T CELL(abcABC):=T 1.889726e+02=T 90.00000=T Traj:=T positionsangstrom=T Step:=T 0=T Bead:=T pbc="F F F"
C      -42.97240000     -35.52130000     -73.89970000
C      -43.40750000     -34.16300000     -74.03360000
C      -42.92630000     -33.31280000     -72.98950000
C      -42.06870000     -33.75040000     -72.00210000
C      -41.55970000     -35.03110000     -72.05230000
C      -42.03090000     -36.03010000     -72.96360000
H      -43.37430000     -36.26660000     -74.63480000
H      -43.26060000     -32.25980000     -72.98420000
H      -40.78590000     -35.34820000     -71.31500000
H      -41.54210000     -37.03700000     -72.96820000
C      -41.57860000     -32.88070000     -70.87150000
H      -40.53400000     -32.64150000     -70.96310000
H      -41.51680000     -33.49330000     -69.94970000
C      -44.38680000     -33.77900000     -75.03760000
H      -44.72020000     -32.72780000     -74.97250000
H      -43.92880000     -33.86440000     -76.04060000
S      -42.41840000     -31.26820000     -70.63580000
S      -45.88640000     -34.95790000     -74.88390000
C      -44.13130000     -31.61690000     -70.28180000
H      -44.43110000     -30.70610000     -69.72270000
H      -44.78790000     -31.59500000     -71.21040000
C      -46.43460000     -34.77440000     -73.07850000
H      -45.94390000     -35.55920000     -72.51610000
H      -47.52270000     -35.01580000     -73.05560000
C      -46.14950000     -33.42010000     -72.36410000
H      -45.15580000     -33.40240000     -71.90330000
H      -46.09510000     -32.71470000     -73.26870000
C      -44.37500000     -32.99230000     -69.49330000
H      -43.69770000     -32.89190000     -68.61770000
H      -43.93990000     -33.79080000     -70.13480000
C      -45.83520000     -33.12860000     -69.07750000
C      -46.13980000     -33.01040000     -67.71450000
C      -47.02170000     -33.22330000     -69.88240000
H      -45.37410000     -32.83440000     -66.96000000
C      -48.17900000     -32.83770000     -69.16100000
C      -47.25530000     -33.12490000     -71.33070000
C      -48.57720000     -32.86110000     -71.61690000
S      -47.88580000     -32.74920000     -67.44960000
S      -49.59720000     -32.70940000     -70.22420000
H      -48.98660000     -32.64880000     -72.61200000
