40
Properties=species:S:1:pos:R:3 #=T CELL(abcABC):=T 1.889726e+02=T 90.00000=T Traj:=T positionsangstrom=T Step:=T 0=T Bead:=T pbc="F F F"
C      -42.29870000     -35.61310000     -73.40150000
C      -42.93220000     -34.34600000     -73.61560000
C      -42.64780000     -33.30910000     -72.73980000
C      -41.94260000     -33.51670000     -71.50760000
C      -41.66180000     -34.86610000     -71.20740000
C      -41.70280000     -35.87140000     -72.15350000
H      -42.29100000     -36.37860000     -74.15870000
H      -43.07060000     -32.29100000     -73.00600000
H      -41.19420000     -34.96440000     -70.27200000
H      -41.29150000     -36.85430000     -71.72090000
C      -41.67350000     -32.48270000     -70.47620000
H      -40.59040000     -32.29180000     -70.37420000
H      -41.83150000     -32.88980000     -69.49370000
C      -43.78060000     -34.12170000     -74.78390000
H      -44.10180000     -33.07310000     -74.88970000
H      -43.18910000     -34.39910000     -75.66740000
S      -42.52260000     -30.92150000     -70.64740000
S      -45.37210000     -35.09650000     -74.74110000
C      -44.31030000     -31.31770000     -70.36110000
H      -44.63390000     -30.70190000     -69.47480000
H      -44.89400000     -31.09540000     -71.26430000
C      -45.83260000     -34.76260000     -72.95090000
H      -44.92850000     -34.64630000     -72.40850000
H      -46.30110000     -35.65540000     -72.58170000
C      -46.66290000     -33.48120000     -72.83730000
H      -45.92380000     -32.62480000     -72.83350000
H      -47.22280000     -33.38290000     -73.79250000
C      -44.67860000     -32.82780000     -70.02000000
H      -43.84600000     -33.23260000     -69.40290000
H      -44.58570000     -33.39310000     -70.94290000
C      -46.02400000     -32.86700000     -69.48180000
C      -46.41710000     -32.71320000     -68.15610000
C      -47.23030000     -33.10770000     -70.26480000
H      -45.82150000     -32.11440000     -67.42670000
C      -48.42920000     -32.98090000     -69.49010000
C      -47.53900000     -33.36600000     -71.67170000
C      -48.91860000     -33.42770000     -71.82430000
S      -48.15140000     -32.71530000     -67.79770000
S      -49.88760000     -33.17370000     -70.38830000
H      -49.37070000     -33.45100000     -72.80290000
