40
Properties=species:S:1:pos:R:3 #=T CELL(abcABC):=T 1.889726e+02=T 90.00000=T Traj:=T positionsangstrom=T Step:=T 0=T Bead:=T pbc="F F F"
C      -42.57540000     -35.52770000     -73.55980000
C      -43.00890000     -34.21460000     -73.62730000
C      -42.69780000     -33.21880000     -72.69320000
C      -41.82120000     -33.58990000     -71.65610000
C      -41.38960000     -34.91970000     -71.61660000
C      -41.74140000     -35.89110000     -72.55750000
H      -43.06240000     -36.17070000     -74.35320000
H      -43.07270000     -32.18340000     -72.92470000
H      -40.80550000     -35.33590000     -70.74880000
H      -41.37740000     -36.89410000     -72.39870000
C      -41.48760000     -32.57400000     -70.50930000
H      -40.47010000     -32.15240000     -70.74830000
H      -41.44780000     -33.03870000     -69.52640000
C      -43.96490000     -33.84710000     -74.78170000
H      -44.41260000     -32.87930000     -74.75220000
H      -43.36240000     -33.96360000     -75.70430000
S      -42.55880000     -31.02260000     -70.29020000
S      -45.35150000     -35.00480000     -74.76560000
C      -44.23060000     -31.57890000     -70.52580000
H      -44.81440000     -30.76970000     -70.14920000
H      -44.50630000     -31.56100000     -71.58420000
C      -46.10170000     -34.89460000     -73.06360000
H      -45.51810000     -35.34370000     -72.24270000
H      -47.09550000     -35.44300000     -73.11360000
C      -46.57490000     -33.45300000     -72.76970000
H      -45.68310000     -32.82260000     -72.53940000
H      -47.04560000     -33.08410000     -73.69940000
C      -44.51190000     -32.87740000     -69.80120000
H      -44.03290000     -33.01270000     -68.84780000
H      -44.26120000     -33.83250000     -70.29500000
C      -46.02800000     -32.92260000     -69.45870000
C      -46.35550000     -32.70340000     -68.13410000
C      -47.26420000     -33.11480000     -70.21740000
H      -45.70900000     -32.73680000     -67.27950000
C      -48.43230000     -32.95530000     -69.45790000
C      -47.59010000     -33.30460000     -71.59650000
C      -48.94010000     -33.49660000     -71.85690000
S      -48.10580000     -32.58910000     -67.79660000
S      -49.86830000     -33.20880000     -70.33360000
H      -49.57830000     -33.55430000     -72.77460000
