40
Properties=species:S:1:pos:R:3 #=T CELL(abcABC):=T 1.889726e+02=T 90.00000=T Traj:=T positionsangstrom=T Step:=T 0=T Bead:=T pbc="F F F"
C      -42.82550000     -35.58640000     -73.72350000
C      -43.28600000     -34.26560000     -73.76040000
C      -42.77220000     -33.35130000     -72.85280000
C      -41.84400000     -33.70970000     -71.92960000
C      -41.29750000     -34.95910000     -71.97650000
C      -41.75780000     -35.87610000     -72.88000000
H      -43.28970000     -36.35270000     -74.29590000
H      -43.09260000     -32.36240000     -72.72860000
H      -40.64270000     -35.20120000     -71.10750000
H      -41.38400000     -36.95440000     -72.88580000
C      -41.26790000     -32.71220000     -70.91490000
H      -40.36280000     -32.31970000     -71.44340000
H      -41.02060000     -33.21400000     -69.97030000
C      -44.39270000     -33.89290000     -74.70530000
H      -44.70090000     -32.92080000     -74.41220000
H      -44.01290000     -33.87250000     -75.73190000
S      -42.25140000     -31.22720000     -70.36180000
S      -45.93180000     -34.91520000     -74.90320000
C      -44.05850000     -31.65800000     -70.16760000
H      -44.46220000     -30.97260000     -69.43210000
H      -44.60720000     -31.47300000     -71.05380000
C      -46.75150000     -34.80280000     -73.25430000
H      -46.33020000     -35.67500000     -72.70290000
H      -47.81400000     -34.92650000     -73.28600000
C      -46.45150000     -33.45750000     -72.62190000
H      -45.39750000     -33.44780000     -72.31100000
H      -46.70480000     -32.62440000     -73.20350000
C      -44.46480000     -33.08420000     -69.65910000
H      -43.85500000     -33.52790000     -68.84630000
H      -44.38990000     -33.81740000     -70.44200000
C      -45.89690000     -32.97450000     -69.17510000
C      -46.28830000     -32.75930000     -67.84450000
C      -47.01690000     -33.00810000     -70.05350000
H      -45.49900000     -32.55920000     -67.07430000
C      -48.19790000     -32.79610000     -69.31490000
C      -47.37590000     -33.19990000     -71.43910000
C      -48.71840000     -33.12490000     -71.70870000
S      -48.03270000     -32.74570000     -67.58500000
S      -49.67370000     -32.86360000     -70.30110000
H      -49.14480000     -33.30170000     -72.69040000
