40
Properties=species:S:1:pos:R:3 #=T CELL(abcABC):=T 1.889726e+02=T 90.00000=T Traj:=T positionsangstrom=T Step:=T 0=T Bead:=T pbc="F F F"
C      -42.54880000     -35.40850000     -73.64450000
C      -43.07890000     -34.13740000     -73.66170000
C      -42.60680000     -33.15000000     -72.78380000
C      -41.74520000     -33.48340000     -71.72190000
C      -41.31360000     -34.82540000     -71.66010000
C      -41.65800000     -35.78120000     -72.65940000
H      -42.81020000     -36.10760000     -74.48140000
H      -42.99080000     -32.15300000     -72.93400000
H      -40.61510000     -35.23400000     -70.89360000
H      -41.14360000     -36.66300000     -72.64800000
C      -41.27340000     -32.57140000     -70.70190000
H      -40.34430000     -32.09760000     -71.08700000
H      -40.94970000     -33.20130000     -69.86070000
C      -44.07160000     -33.81840000     -74.68560000
H      -44.47930000     -32.80870000     -74.59380000
H      -43.57740000     -33.87030000     -75.67500000
S      -42.41780000     -31.24900000     -70.15950000
S      -45.59450000     -35.02530000     -74.93870000
C      -44.24790000     -31.69100000     -70.34230000
H      -44.73410000     -30.90080000     -69.75180000
H      -44.56040000     -31.52360000     -71.37610000
C      -46.46760000     -34.88900000     -73.23300000
H      -45.91210000     -35.48690000     -72.53030000
H      -47.37400000     -35.47410000     -73.31210000
C      -46.55660000     -33.46220000     -72.74230000
H      -45.54730000     -33.15640000     -72.56330000
H      -46.97080000     -32.75290000     -73.42970000
C      -44.68270000     -33.07870000     -69.84660000
H      -44.03480000     -33.33540000     -69.02020000
H      -44.53090000     -33.78510000     -70.69210000
C      -46.03460000     -32.91310000     -69.35080000
C      -46.32110000     -32.57620000     -68.05700000
C      -47.23500000     -33.08280000     -70.16310000
H      -45.59750000     -32.66720000     -67.30850000
C      -48.39840000     -33.11260000     -69.36050000
C      -47.51750000     -33.31440000     -71.56380000
C      -48.86910000     -33.37340000     -71.77980000
S      -48.07210000     -32.56350000     -67.62880000
S      -49.85470000     -33.14120000     -70.39490000
H      -49.41130000     -33.61890000     -72.67150000
