40
Properties=species:S:1:pos:R:3 #=T CELL(abcABC):=T 1.889726e+02=T 90.00000=T Traj:=T positionsangstrom=T Step:=T 0=T Bead:=T pbc="F F F"
C      -42.38920000     -36.19890000     -72.59150000
C      -42.77070000     -35.10270000     -73.31920000
C      -42.53430000     -33.82510000     -72.84600000
C      -41.83040000     -33.69140000     -71.58650000
C      -41.53170000     -34.78840000     -70.77340000
C      -41.76560000     -36.05160000     -71.33810000
H      -42.67780000     -37.13230000     -73.00400000
H      -42.69770000     -32.95710000     -73.51860000
H      -41.18790000     -34.68210000     -69.77890000
H      -41.44370000     -36.96010000     -70.77940000
C      -41.50950000     -32.33380000     -71.07060000
H      -40.62370000     -32.04250000     -71.61000000
H      -41.17470000     -32.31090000     -70.00330000
C      -43.69370000     -35.20150000     -74.54940000
H      -43.70030000     -34.32040000     -75.16840000
H      -43.28080000     -36.01570000     -75.15130000
S      -42.72990000     -30.98860000     -71.45290000
S      -45.50880000     -35.60460000     -74.12990000
C      -44.07450000     -30.94650000     -70.18010000
H      -43.63240000     -30.57850000     -69.19730000
H      -44.80760000     -30.21130000     -70.52400000
C      -45.88930000     -34.58480000     -72.59160000
H      -45.06630000     -34.56730000     -71.91810000
H      -46.69960000     -35.11380000     -72.13490000
C      -46.42170000     -33.12050000     -72.82580000
H      -45.71510000     -32.36860000     -72.64730000
H      -46.77680000     -32.96640000     -73.86440000
C      -44.62430000     -32.38560000     -70.02670000
H      -44.03690000     -32.91360000     -69.26640000
H      -44.59960000     -32.88800000     -70.97240000
C      -46.10790000     -32.55300000     -69.57740000
C      -46.43580000     -32.36570000     -68.30140000
C      -47.29820000     -32.76500000     -70.40490000
H      -45.76820000     -32.22890000     -67.51160000
C      -48.50730000     -32.81200000     -69.66810000
C      -47.54110000     -33.00050000     -71.76540000
C      -48.90380000     -33.06190000     -72.07690000
S      -48.16260000     -32.46230000     -67.96800000
S      -49.90880000     -32.91850000     -70.64340000
H      -49.39350000     -33.30950000     -73.04020000
