40
Properties=species:S:1:pos:R:3 #=T CELL(abcABC):=T 1.889726e+02=T 90.00000=T Traj:=T positionsangstrom=T Step:=T 0=T Bead:=T pbc="F F F"
C      -42.51930000     -35.98700000     -72.45980000
C      -42.92720000     -34.88960000     -73.19130000
C      -42.56700000     -33.62860000     -72.79070000
C      -41.84330000     -33.37150000     -71.61620000
C      -41.39470000     -34.45200000     -70.84700000
C      -41.82350000     -35.78280000     -71.30900000
H      -42.80400000     -36.98640000     -72.84580000
H      -42.97770000     -32.73310000     -73.33810000
H      -40.66300000     -34.42070000     -70.02210000
H      -41.51530000     -36.66960000     -70.75840000
C      -41.54310000     -32.00680000     -71.16760000
H      -40.81210000     -31.61340000     -71.87400000
H      -41.01970000     -31.90780000     -70.17150000
C      -43.52260000     -35.00740000     -74.55430000
H      -43.22190000     -34.17680000     -75.17220000
H      -43.18770000     -35.97450000     -74.95240000
S      -42.80930000     -30.69720000     -71.17260000
S      -45.34820000     -35.23190000     -74.41570000
C      -44.22940000     -31.16870000     -69.93050000
H      -43.81430000     -31.07900000     -68.90040000
H      -44.98630000     -30.44690000     -70.24890000
C      -45.94500000     -34.46510000     -72.83290000
H      -45.07290000     -34.46860000     -72.15130000
H      -46.63460000     -35.21220000     -72.35630000
C      -46.54750000     -33.03700000     -72.94860000
H      -45.78230000     -32.28490000     -72.70890000
H      -46.91680000     -32.87490000     -73.95250000
C      -44.68320000     -32.53430000     -70.07950000
H      -44.09910000     -33.31000000     -69.62820000
H      -44.73430000     -32.83500000     -71.15120000
C      -46.09200000     -32.82590000     -69.57000000
C      -46.42450000     -32.79490000     -68.23260000
C      -47.24430000     -32.96700000     -70.42830000
H      -45.75580000     -32.57080000     -67.46720000
C      -48.38320000     -33.13440000     -69.69300000
C      -47.58550000     -32.98450000     -71.84040000
C      -48.97790000     -33.25200000     -72.03280000
S      -48.11190000     -32.98990000     -68.01570000
S      -49.87380000     -33.27480000     -70.55940000
H      -49.54400000     -32.96060000     -72.99200000
