40
Properties=species:S:1:pos:R:3 #=T CELL(abcABC):=T 1.889726e+02=T 90.00000=T Traj:=T positionsangstrom=T Step:=T 0=T Bead:=T pbc="F F F"
C      -42.94080000     -35.79790000     -72.16070000
C      -42.94550000     -34.83920000     -73.19000000
C      -42.49360000     -33.57210000     -72.91480000
C      -41.92700000     -33.25770000     -71.65210000
C      -41.82320000     -34.28470000     -70.64730000
C      -42.30740000     -35.53420000     -70.91600000
H      -43.39470000     -36.75360000     -72.24680000
H      -42.67200000     -32.72800000     -73.61840000
H      -41.29360000     -34.10900000     -69.73540000
H      -42.15550000     -36.33700000     -70.15350000
C      -41.54530000     -31.84210000     -71.38460000
H      -40.94880000     -31.45850000     -72.25550000
H      -40.98300000     -31.71160000     -70.47970000
C      -43.52060000     -35.16880000     -74.55960000
H      -43.47470000     -34.30920000     -75.21270000
H      -42.99590000     -36.03150000     -74.97730000
S      -43.00250000     -30.56560000     -71.30960000
S      -45.31420000     -35.52160000     -74.53970000
C      -43.94660000     -31.32350000     -69.93060000
H      -43.33740000     -31.20090000     -68.99080000
H      -44.77660000     -30.55220000     -69.78540000
C      -46.17580000     -34.97100000     -73.00070000
H      -45.57190000     -35.29010000     -72.09520000
H      -47.05450000     -35.62800000     -72.88330000
C      -46.52770000     -33.43650000     -72.93870000
H      -45.59250000     -32.89360000     -72.67480000
H      -46.91470000     -33.09350000     -73.93050000
C      -44.50830000     -32.78890000     -70.11480000
H      -43.87320000     -33.47330000     -69.50700000
H      -44.62180000     -33.14270000     -71.12440000
C      -45.93470000     -32.89290000     -69.60280000
C      -46.20220000     -32.98110000     -68.26090000
C      -47.13370000     -32.99060000     -70.42840000
H      -45.55810000     -33.04620000     -67.39900000
C      -48.29200000     -32.93970000     -69.59880000
C      -47.47170000     -33.17170000     -71.81840000
C      -48.86790000     -33.26150000     -72.00620000
S      -47.89770000     -32.92170000     -67.91950000
S      -49.77930000     -32.80860000     -70.56910000
H      -49.37540000     -33.62730000     -72.82290000
