40
Properties=species:S:1:pos:R:3 #=T CELL(abcABC):=T 1.889726e+02=T 90.00000=T Traj:=T positionsangstrom=T Step:=T 0=T Bead:=T pbc="F F F"
C      -42.58020000     -35.80910000     -72.31610000
C      -42.90920000     -34.81090000     -73.20550000
C      -42.49090000     -33.51860000     -72.89650000
C      -41.83060000     -33.25880000     -71.65820000
C      -41.65620000     -34.26590000     -70.67050000
C      -42.03020000     -35.57740000     -71.04130000
H      -42.66990000     -36.85000000     -72.59500000
H      -42.51050000     -32.84520000     -73.75240000
H      -41.40790000     -34.03370000     -69.61110000
H      -41.97560000     -36.32460000     -70.23090000
C      -41.45610000     -31.82120000     -71.22350000
H      -40.70880000     -31.42350000     -71.96010000
H      -41.02600000     -31.81430000     -70.22710000
C      -43.57070000     -35.14830000     -74.53760000
H      -43.38500000     -34.40110000     -75.36280000
H      -43.04650000     -36.00850000     -74.93500000
S      -42.91020000     -30.64350000     -71.21740000
S      -45.42300000     -35.42940000     -74.50270000
C      -44.05360000     -31.28850000     -69.94970000
H      -43.59790000     -31.25280000     -68.98220000
H      -44.85430000     -30.54420000     -69.92540000
C      -45.98030000     -34.84480000     -72.79450000
H      -45.15620000     -35.13120000     -72.22100000
H      -46.88660000     -35.41090000     -72.54090000
C      -46.48470000     -33.33010000     -72.91510000
H      -45.72060000     -32.59890000     -73.06150000
H      -46.95120000     -33.30040000     -73.89860000
C      -44.66980000     -32.67050000     -70.10620000
H      -43.94580000     -33.36730000     -69.73570000
H      -44.62750000     -32.83340000     -71.17320000
C      -46.02970000     -32.81100000     -69.56350000
C      -46.30170000     -32.87660000     -68.21580000
C      -47.19010000     -32.93010000     -70.41590000
H      -45.64170000     -32.83540000     -67.42000000
C      -48.37390000     -33.09220000     -69.67230000
C      -47.50160000     -32.96610000     -71.87330000
C      -48.90300000     -33.05730000     -72.14200000
S      -48.06890000     -32.99730000     -67.96600000
S      -49.83400000     -33.15630000     -70.59600000
H      -49.34070000     -33.03900000     -73.18060000
