40
Properties=species:S:1:pos:R:3 #=T CELL(abcABC):=T 1.889726e+02=T 90.00000=T Traj:=T positionsangstrom=T Step:=T 0=T Bead:=T pbc="F F F"
C      -42.74370000     -35.99640000     -72.34980000
C      -42.97010000     -34.88460000     -73.18060000
C      -42.48590000     -33.63870000     -72.77170000
C      -41.82310000     -33.52280000     -71.52310000
C      -41.57940000     -34.65440000     -70.73480000
C      -42.01130000     -35.91540000     -71.15020000
H      -43.26630000     -36.90350000     -72.60050000
H      -42.70960000     -32.76300000     -73.31590000
H      -40.90930000     -34.54020000     -69.85320000
H      -41.86910000     -36.67830000     -70.45410000
C      -41.41760000     -32.12170000     -71.13370000
H      -40.54920000     -31.79780000     -71.80060000
H      -41.17210000     -32.05780000     -70.11990000
C      -43.66480000     -35.01470000     -74.51920000
H      -43.70750000     -34.03570000     -75.06110000
H      -43.15960000     -35.84870000     -75.06340000
S      -42.75000000     -30.90200000     -71.53230000
S      -45.49960000     -35.59440000     -74.33560000
C      -44.06990000     -31.27290000     -70.26650000
H      -43.72590000     -30.99410000     -69.29420000
H      -44.89890000     -30.61460000     -70.41110000
C      -46.12440000     -34.84020000     -72.81410000
H      -45.39060000     -34.92090000     -71.95510000
H      -46.94840000     -35.48840000     -72.49670000
C      -46.48440000     -33.29600000     -72.86590000
H      -45.50450000     -32.83220000     -72.75930000
H      -46.92570000     -32.98890000     -73.85100000
C      -44.57400000     -32.67530000     -70.09220000
H      -43.93060000     -33.23180000     -69.38620000
H      -44.53000000     -33.20250000     -71.07450000
C      -45.98500000     -32.65360000     -69.50450000
C      -46.35960000     -32.54460000     -68.24060000
C      -47.21620000     -32.74280000     -70.35840000
H      -45.64310000     -32.51230000     -67.42170000
C      -48.39480000     -32.60850000     -69.64830000
C      -47.44520000     -32.93300000     -71.76920000
C      -48.78890000     -32.97010000     -72.05240000
S      -48.15220000     -32.67130000     -67.92010000
S      -49.76830000     -32.95860000     -70.60490000
H      -49.21350000     -33.30990000     -73.01570000
