40
Properties=species:S:1:pos:R:3 #=T CELL(abcABC):=T 1.889726e+02=T 90.00000=T Traj:=T positionsangstrom=T Step:=T 0=T Bead:=T pbc="F F F"
C      -43.01640000     -35.73570000     -72.13210000
C      -43.03070000     -34.72790000     -73.15160000
C      -42.46920000     -33.47970000     -72.87530000
C      -41.94400000     -33.22830000     -71.62670000
C      -41.86750000     -34.20860000     -70.65130000
C      -42.50120000     -35.43610000     -70.87540000
H      -43.47310000     -36.72180000     -72.32960000
H      -42.35130000     -32.65200000     -73.58210000
H      -41.44680000     -33.93390000     -69.71810000
H      -42.44790000     -36.18510000     -70.12250000
C      -41.55960000     -31.85370000     -71.31010000
H      -40.89450000     -31.38810000     -71.98230000
H      -41.00070000     -31.84290000     -70.34660000
C      -43.54700000     -35.07920000     -74.56010000
H      -43.22730000     -34.25200000     -75.21140000
H      -43.01920000     -36.05890000     -74.84870000
S      -42.99550000     -30.78140000     -71.33610000
S      -45.37910000     -35.60930000     -74.66950000
C      -44.17920000     -31.33440000     -69.99460000
H      -43.82700000     -31.29340000     -68.98310000
H      -45.05550000     -30.77910000     -69.99550000
C      -46.19720000     -35.05020000     -73.11810000
H      -45.67830000     -35.35400000     -72.19020000
H      -47.14730000     -35.58300000     -73.15590000
C      -46.52140000     -33.57370000     -73.00960000
H      -45.58030000     -33.01080000     -72.90560000
H      -47.03270000     -33.20190000     -73.86490000
C      -44.55010000     -32.88920000     -70.21330000
H      -43.83570000     -33.47430000     -69.58640000
H      -44.51060000     -33.20740000     -71.27180000
C      -45.88050000     -33.06630000     -69.53410000
C      -46.13570000     -32.92680000     -68.21700000
C      -47.08900000     -33.04870000     -70.37210000
H      -45.38100000     -32.92100000     -67.36340000
C      -48.21980000     -32.99110000     -69.52660000
C      -47.37800000     -33.15490000     -71.81090000
C      -48.72860000     -32.89450000     -71.99430000
S      -47.86500000     -32.76240000     -67.88160000
S      -49.64390000     -32.82490000     -70.49360000
H      -49.19680000     -32.89020000     -72.88350000
