40
Properties=species:S:1:pos:R:3 #=T CELL(abcABC):=T 1.889726e+02=T 90.00000=T Traj:=T positionsangstrom=T Step:=T 0=T Bead:=T pbc="F F F"
C      -42.53010000     -33.21030000     -68.62100000
C      -42.38160000     -33.93480000     -69.79450000
C      -42.35860000     -33.22170000     -70.98860000
C      -42.34470000     -31.84820000     -71.11890000
C      -42.13770000     -31.13280000     -69.87720000
C      -42.26600000     -31.84430000     -68.65840000
H      -42.62210000     -33.77220000     -67.70570000
H      -42.45320000     -33.71810000     -71.96710000
H      -41.99330000     -30.10860000     -69.79790000
H      -42.11740000     -31.35760000     -67.74590000
C      -42.53020000     -31.15720000     -72.44460000
H      -42.09600000     -31.80970000     -73.16200000
H      -42.00020000     -30.15670000     -72.47210000
C      -42.43820000     -35.45490000     -69.85660000
H      -42.49810000     -35.79170000     -70.92120000
H      -41.58580000     -35.88680000     -69.26570000
S      -44.28240000     -30.81240000     -72.92900000
S      -43.84930000     -36.16190000     -68.92320000
C      -45.14930000     -30.69990000     -71.28660000
H      -44.42000000     -30.20430000     -70.63820000
H      -45.95920000     -30.00030000     -71.38220000
C      -45.35660000     -35.47620000     -69.89060000
H      -45.59330000     -34.48170000     -69.54880000
H      -46.23230000     -36.10020000     -69.62580000
C      -45.15930000     -35.50240000     -71.44370000
H      -44.46360000     -34.67290000     -71.68650000
H      -44.63530000     -36.39230000     -71.74140000
C      -45.66000000     -31.95930000     -70.62390000
H      -45.98780000     -31.57970000     -69.51650000
H      -44.78560000     -32.69270000     -70.51360000
C      -46.92250000     -32.48770000     -71.36620000
C      -47.98670000     -31.64250000     -71.53490000
C      -47.09080000     -33.76070000     -72.05400000
H      -48.12080000     -30.54780000     -71.41430000
C      -48.33830000     -33.79440000     -72.71260000
C      -46.49600000     -35.10970000     -72.08520000
C      -47.17030000     -35.95610000     -72.84950000
S      -49.27190000     -32.35950000     -72.56120000
S      -48.68460000     -35.33970000     -73.45170000
H      -46.96890000     -37.01320000     -72.93320000
