40
Properties=species:S:1:pos:R:3 #=T CELL(abcABC):=T 1.889726e+02=T 90.00000=T Traj:=T positionsangstrom=T Step:=T 0=T Bead:=T pbc="F F F"
C      -41.98150000     -36.20180000     -73.07660000
C      -42.77010000     -35.10040000     -73.40190000
C      -42.61250000     -33.96480000     -72.65080000
C      -41.80140000     -33.90900000     -71.50990000
C      -41.04200000     -35.01890000     -71.13730000
C      -41.12870000     -36.08890000     -72.00030000
H      -42.09600000     -37.12180000     -73.62180000
H      -43.07890000     -32.99830000     -72.86800000
H      -40.26490000     -34.97560000     -70.32830000
H      -40.64290000     -37.02930000     -71.75370000
C      -41.70820000     -32.59340000     -70.65750000
H      -40.67190000     -32.20360000     -70.63300000
H      -41.88670000     -32.80610000     -69.64990000
C      -43.71720000     -35.15500000     -74.57880000
H      -43.66790000     -34.14100000     -75.09410000
H      -43.36970000     -35.95370000     -75.24060000
S      -42.68000000     -31.09700000     -71.25970000
S      -45.47800000     -35.72200000     -74.17930000
C      -44.20040000     -30.98460000     -70.28220000
H      -44.03980000     -30.42580000     -69.32540000
H      -44.85050000     -30.32780000     -70.89390000
C      -45.98910000     -34.97860000     -72.54850000
H      -45.15540000     -34.97230000     -71.88910000
H      -46.78260000     -35.64370000     -72.07790000
C      -46.53740000     -33.50520000     -72.72090000
H      -45.69220000     -32.84130000     -72.60750000
H      -46.80750000     -33.28770000     -73.74720000
C      -44.73200000     -32.36410000     -69.89060000
H      -44.10740000     -32.78490000     -69.03440000
H      -44.56060000     -33.11500000     -70.72730000
C      -46.21080000     -32.30120000     -69.54140000
C      -46.53090000     -32.00410000     -68.22730000
C      -47.36900000     -32.69650000     -70.34010000
H      -45.87520000     -31.63390000     -67.36070000
C      -48.54360000     -32.49800000     -69.64500000
C      -47.61920000     -33.05920000     -71.72990000
C      -49.03470000     -33.20130000     -71.98120000
S      -48.28470000     -31.90660000     -68.05690000
S      -49.98830000     -32.86700000     -70.54930000
H      -49.46630000     -33.47350000     -72.88800000
