40
Properties=species:S:1:pos:R:3 #=T CELL(abcABC):=T 1.889726e+02=T 90.00000=T Traj:=T positionsangstrom=T Step:=T 0=T Bead:=T pbc="F F F"
C      -43.43780000     -31.99860000     -67.48200000
C      -44.19380000     -33.02430000     -68.06190000
C      -43.66090000     -33.71430000     -69.11470000
C      -42.31180000     -33.55150000     -69.56790000
C      -41.51570000     -32.64190000     -68.81330000
C      -42.09190000     -31.81370000     -67.87970000
H      -43.90170000     -31.43120000     -66.71530000
H      -44.27300000     -34.48370000     -69.52620000
H      -40.46500000     -32.42100000     -69.08660000
H      -41.47820000     -30.99260000     -67.50240000
C      -41.67720000     -34.47430000     -70.54780000
H      -40.94160000     -35.12580000     -69.99980000
H      -41.14560000     -33.94470000     -71.38960000
C      -45.53190000     -33.38390000     -67.48680000
H      -45.76820000     -34.37600000     -67.85520000
H      -45.53740000     -33.23620000     -66.42730000
S      -42.67760000     -35.84810000     -71.34800000
S      -46.68780000     -32.11090000     -68.12620000
C      -44.01210000     -34.86910000     -72.26780000
H      -43.85360000     -33.84550000     -71.85200000
H      -43.81550000     -34.74910000     -73.32160000
C      -47.06520000     -32.67910000     -69.78790000
H      -48.06530000     -32.49410000     -69.96480000
H      -47.02990000     -33.77600000     -69.88220000
C      -45.99810000     -32.03650000     -70.81370000
H      -45.86620000     -30.92730000     -70.62460000
H      -45.04290000     -32.54520000     -70.69310000
C      -45.41150000     -35.38810000     -72.01740000
H      -45.63330000     -35.18610000     -70.89340000
H      -45.49900000     -36.47220000     -72.06590000
C      -46.40350000     -34.82830000     -73.05560000
C      -46.75060000     -35.52390000     -74.17860000
C      -46.68450000     -33.43110000     -73.18120000
H      -46.47820000     -36.52860000     -74.43410000
C      -47.38140000     -33.10380000     -74.35580000
C      -46.52800000     -32.23150000     -72.31520000
C      -47.02950000     -31.14760000     -72.95800000
S      -47.48230000     -34.46870000     -75.37590000
S      -47.74240000     -31.42770000     -74.49030000
H      -47.25690000     -30.13070000     -72.45690000
