40
Properties=species:S:1:pos:R:3 #=T CELL(abcABC):=T 1.889726e+02=T 90.00000=T Traj:=T positionsangstrom=T Step:=T 0=T Bead:=T pbc="F F F"
C      -41.99220000     -33.34150000     -68.59720000
C      -42.22490000     -34.10150000     -69.76860000
C      -42.30580000     -33.41210000     -70.97390000
C      -42.43860000     -31.97720000     -71.04660000
C      -42.43150000     -31.28030000     -69.80740000
C      -42.14410000     -31.96460000     -68.61280000
H      -41.85580000     -33.78240000     -67.59720000
H      -42.31840000     -34.12210000     -71.84890000
H      -42.47510000     -30.16730000     -69.91000000
H      -42.19500000     -31.41120000     -67.72380000
C      -42.45780000     -31.06330000     -72.25700000
H      -41.86410000     -31.50460000     -73.04460000
H      -41.99210000     -30.10410000     -72.07480000
C      -42.46490000     -35.61230000     -69.73380000
H      -42.54570000     -35.91530000     -70.74610000
H      -41.71590000     -36.24430000     -69.35640000
S      -44.20140000     -30.95540000     -72.86860000
S      -44.01590000     -36.07000000     -68.90010000
C      -45.13850000     -30.66220000     -71.27620000
H      -44.48130000     -30.05760000     -70.62910000
H      -46.03710000     -30.13240000     -71.52770000
C      -45.38140000     -35.44120000     -69.92740000
H      -45.79170000     -34.47680000     -69.56170000
H      -46.15320000     -36.17370000     -69.68710000
C      -45.19030000     -35.39170000     -71.42160000
H      -44.39430000     -34.69830000     -71.71400000
H      -44.88450000     -36.34800000     -71.83130000
C      -45.71420000     -32.00620000     -70.65660000
H      -45.96380000     -31.93580000     -69.63840000
H      -45.02220000     -32.76500000     -70.69550000
C      -46.94680000     -32.37330000     -71.43940000
C      -47.98350000     -31.51910000     -71.69360000
C      -47.13670000     -33.68660000     -72.11610000
H      -48.26270000     -30.61740000     -71.25050000
C      -48.38550000     -33.68540000     -72.77300000
C      -46.41930000     -34.98140000     -72.24290000
C      -47.13070000     -35.85960000     -72.95070000
S      -49.31800000     -32.27930000     -72.58530000
S      -48.70430000     -35.27260000     -73.48540000
H      -46.88400000     -36.90420000     -72.97500000
