40
Properties=species:S:1:pos:R:3 #=T CELL(abcABC):=T 1.889726e+02=T 90.00000=T Traj:=T positionsangstrom=T Step:=T 0=T Bead:=T pbc="F F F"
C      -41.95180000     -33.34010000     -68.60710000
C      -42.22860000     -34.00190000     -69.79940000
C      -42.31070000     -33.22210000     -71.00650000
C      -42.13580000     -31.82910000     -70.98260000
C      -42.02180000     -31.20310000     -69.69590000
C      -41.88280000     -31.95890000     -68.49500000
H      -41.87040000     -33.89670000     -67.70290000
H      -42.50310000     -33.65430000     -71.98820000
H      -42.02070000     -30.13180000     -69.71870000
H      -41.69730000     -31.47710000     -67.51110000
C      -42.30730000     -31.03070000     -72.27660000
H      -41.65440000     -31.37940000     -73.04610000
H      -42.10780000     -30.01820000     -72.05030000
C      -42.37890000     -35.54490000     -69.76080000
H      -42.18300000     -35.92660000     -70.71600000
H      -41.65290000     -35.92870000     -69.09660000
S      -44.11660000     -31.26180000     -72.78880000
S      -44.00040000     -36.35010000     -69.11950000
C      -45.04470000     -30.71990000     -71.25470000
H      -44.34740000     -30.43010000     -70.46030000
H      -45.53230000     -29.79170000     -71.49690000
C      -45.32300000     -35.25070000     -69.88260000
H      -45.23730000     -34.29020000     -69.42290000
H      -46.23650000     -35.73950000     -69.44920000
C      -45.23850000     -35.18610000     -71.40640000
H      -44.42370000     -34.52700000     -71.54950000
H      -44.77900000     -36.05830000     -71.88970000
C      -45.91390000     -31.87840000     -70.60980000
H      -46.26070000     -31.40610000     -69.66490000
H      -45.16670000     -32.71830000     -70.47690000
C      -47.15020000     -32.26090000     -71.45040000
C      -48.31130000     -31.52660000     -71.69960000
C      -47.27640000     -33.57680000     -72.12190000
H      -48.28750000     -30.46950000     -71.44840000
C      -48.50320000     -33.72160000     -72.77910000
C      -46.54650000     -34.82580000     -72.16960000
C      -47.21190000     -35.82170000     -72.82880000
S      -49.45570000     -32.26630000     -72.74560000
S      -48.78790000     -35.33030000     -73.39470000
H      -46.81040000     -36.83590000     -73.04570000
