40
Properties=species:S:1:pos:R:3 #=T CELL(abcABC):=T 1.889726e+02=T 90.00000=T Traj:=T positionsangstrom=T Step:=T 0=T Bead:=T pbc="F F F"
C      -43.20290000     -32.16150000     -67.56590000
C      -44.02810000     -33.12760000     -68.16000000
C      -43.42140000     -34.07260000     -68.91710000
C      -42.12110000     -33.98550000     -69.49630000
C      -41.37340000     -32.91300000     -68.94910000
C      -41.92450000     -31.95990000     -68.05030000
H      -43.56140000     -31.57500000     -66.76170000
H      -43.96250000     -34.90650000     -69.34380000
H      -40.29350000     -32.78430000     -69.27080000
H      -41.28100000     -31.13660000     -67.72680000
C      -41.50230000     -34.76580000     -70.58590000
H      -40.79640000     -35.39190000     -70.11270000
H      -40.92930000     -34.14260000     -71.17310000
C      -45.37370000     -33.22260000     -67.52220000
H      -45.93810000     -34.16940000     -67.67220000
H      -45.37010000     -33.12890000     -66.41030000
S      -42.49350000     -35.79800000     -71.66660000
S      -46.56960000     -31.81670000     -68.17320000
C      -43.78020000     -34.64520000     -72.42940000
H      -43.61600000     -33.55110000     -72.17140000
H      -43.76960000     -34.82730000     -73.52180000
C      -47.01940000     -32.36840000     -69.87040000
H      -47.97960000     -31.95700000     -70.06670000
H      -47.13170000     -33.46100000     -69.72220000
C      -46.01000000     -31.77580000     -71.03310000
H      -45.88560000     -30.68250000     -70.92720000
H      -45.05320000     -32.27910000     -71.01360000
C      -45.19180000     -35.03880000     -71.92880000
H      -45.53490000     -34.48100000     -71.05390000
H      -45.27590000     -36.09790000     -71.73820000
C      -46.18050000     -34.63590000     -72.95090000
C      -46.59940000     -35.48070000     -74.01400000
C      -46.74560000     -33.30230000     -73.10070000
H      -46.39730000     -36.56070000     -74.08120000
C      -47.47440000     -33.13750000     -74.30710000
C      -46.74090000     -32.08460000     -72.33490000
C      -47.47600000     -31.05860000     -72.89110000
S      -47.77800000     -34.69430000     -75.05420000
S      -48.36860000     -31.63160000     -74.34650000
H      -47.67750000     -30.07730000     -72.45280000
