40
Properties=species:S:1:pos:R:3 #=T CELL(abcABC):=T 1.889726e+02=T 90.00000=T Traj:=T positionsangstrom=T Step:=T 0=T Bead:=T pbc="F F F"
C      -42.38880000     -31.78010000     -68.15100000
C      -43.38000000     -32.74640000     -68.22680000
C      -43.30360000     -33.81640000     -69.13240000
C      -42.31110000     -33.79780000     -70.04040000
C      -41.31030000     -32.85610000     -70.01450000
C      -41.36560000     -31.85380000     -69.11490000
H      -42.45100000     -30.92400000     -67.48660000
H      -44.08740000     -34.54640000     -69.09780000
H      -40.57080000     -32.84150000     -70.81020000
H      -40.56600000     -31.09310000     -69.10310000
C      -41.92240000     -35.06510000     -70.89160000
H      -41.07860000     -35.55620000     -70.41550000
H      -41.58240000     -34.82530000     -71.87010000
C      -44.56830000     -32.68560000     -67.33280000
H      -44.89710000     -33.65750000     -67.02550000
H      -44.32510000     -31.99140000     -66.55110000
S      -43.20780000     -36.41950000     -71.02460000
S      -45.98690000     -31.78660000     -68.12960000
C      -44.16940000     -35.69500000     -72.38550000
H      -43.70880000     -34.85650000     -72.72450000
H      -44.08100000     -36.42590000     -73.23160000
C      -46.37680000     -32.63510000     -69.67920000
H      -47.43170000     -32.63610000     -69.86790000
H      -46.13180000     -33.70250000     -69.55610000
C      -45.62850000     -32.13340000     -70.94810000
H      -45.30330000     -31.07990000     -70.73290000
H      -44.75430000     -32.62440000     -71.01660000
C      -45.69650000     -35.47720000     -72.05530000
H      -45.84030000     -34.95260000     -71.14670000
H      -46.18450000     -36.44570000     -71.94030000
C      -46.60410000     -34.72390000     -73.13480000
C      -47.26380000     -35.33570000     -74.12460000
C      -46.88920000     -33.29180000     -73.03250000
H      -47.22640000     -36.43890000     -74.30000000
C      -47.85350000     -32.93790000     -73.91790000
C      -46.54860000     -32.12630000     -72.18320000
C      -47.24880000     -31.03950000     -72.54220000
S      -48.17950000     -34.22980000     -75.07740000
S      -48.42680000     -31.29590000     -73.84470000
H      -47.34100000     -30.14320000     -72.01220000
