40
Properties=species:S:1:pos:R:3 #=T CELL(abcABC):=T 1.889726e+02=T 90.00000=T Traj:=T positionsangstrom=T Step:=T 0=T Bead:=T pbc="F F F"
C      -43.42550000     -32.09410000     -67.52160000
C      -44.12070000     -33.19970000     -68.05830000
C      -43.49560000     -33.99610000     -69.05160000
C      -42.17650000     -33.69380000     -69.45410000
C      -41.56320000     -32.58800000     -68.87540000
C      -42.13670000     -31.78530000     -67.83940000
H      -43.96280000     -31.40480000     -66.80400000
H      -43.98360000     -34.86380000     -69.53890000
H      -40.58990000     -32.39710000     -69.27910000
H      -41.66560000     -30.92040000     -67.34840000
C      -41.47670000     -34.58380000     -70.40120000
H      -40.79880000     -35.20820000     -69.82490000
H      -40.91230000     -33.99030000     -71.11830000
C      -45.48730000     -33.57590000     -67.64760000
H      -45.87390000     -34.53890000     -67.98140000
H      -45.45670000     -33.59400000     -66.55750000
S      -42.50150000     -35.85080000     -71.33820000
S      -46.67080000     -32.20550000     -68.21390000
C      -43.72820000     -34.97600000     -72.44790000
H      -43.36850000     -33.97380000     -72.56430000
H      -43.56150000     -35.44710000     -73.45440000
C      -46.93510000     -32.39790000     -70.10200000
H      -47.88370000     -31.82410000     -70.20050000
H      -47.09250000     -33.42720000     -70.32460000
C      -45.97100000     -31.75420000     -71.01630000
H      -45.89950000     -30.70580000     -70.79160000
H      -44.93970000     -32.03000000     -70.83530000
C      -45.15420000     -35.06550000     -71.98040000
H      -45.24450000     -34.43410000     -71.10490000
H      -45.47210000     -36.13100000     -71.72550000
C      -46.04790000     -34.62710000     -73.10860000
C      -46.70500000     -35.48860000     -73.99050000
C      -46.51960000     -33.20090000     -73.21200000
H      -46.52700000     -36.57030000     -74.11350000
C      -47.44810000     -33.15100000     -74.25100000
C      -46.48220000     -31.87170000     -72.47530000
C      -47.33520000     -30.96990000     -73.02600000
S      -47.77950000     -34.58820000     -75.10360000
S      -48.23750000     -31.55920000     -74.41550000
H      -47.35350000     -29.92670000     -72.84550000
