40
Properties=species:S:1:pos:R:3 #=T CELL(abcABC):=T 1.889726e+02=T 90.00000=T Traj:=T positionsangstrom=T Step:=T 0=T Bead:=T pbc="F F F"
C      -41.08990000     -33.82660000     -72.07970000
C      -41.99640000     -32.76960000     -71.77300000
C      -42.96600000     -32.41960000     -72.68090000
C      -42.94340000     -32.97050000     -73.99230000
C      -41.99480000     -33.92490000     -74.33390000
C      -41.13420000     -34.44420000     -73.32180000
H      -40.30960000     -34.10730000     -71.39220000
H      -43.73040000     -31.72580000     -72.39590000
H      -41.95020000     -34.29560000     -75.39330000
H      -40.36710000     -35.15620000     -73.52550000
C      -44.00710000     -32.57610000     -75.03440000
H      -43.85450000     -33.12980000     -75.99110000
H      -43.76430000     -31.56100000     -75.31160000
C      -41.87130000     -32.03920000     -70.43850000
H      -40.82610000     -31.84240000     -70.25540000
H      -42.46610000     -31.16570000     -70.65700000
S      -45.71450000     -32.60540000     -74.39360000
S      -42.39770000     -33.07430000     -69.03010000
C      -45.91130000     -34.36540000     -73.83790000
H      -46.79320000     -34.89720000     -74.17020000
H      -45.03390000     -34.86860000     -74.25140000
C      -44.28940000     -33.16980000     -69.44560000
H      -44.59780000     -32.79700000     -70.45620000
H      -44.74340000     -32.42100000     -68.74520000
C      -44.93680000     -34.54080000     -69.15340000
H      -44.73490000     -35.15590000     -70.03490000
H      -44.52200000     -35.10460000     -68.21700000
C      -45.85320000     -34.48500000     -72.27900000
H      -44.95740000     -33.92890000     -72.04640000
H      -45.76930000     -35.58520000     -72.08890000
C      -47.11750000     -33.99920000     -71.65260000
C      -48.18820000     -33.35830000     -72.28570000
C      -47.29030000     -33.92710000     -70.19310000
H      -48.37740000     -33.37380000     -73.36680000
C      -48.52440000     -33.42740000     -69.78220000
C      -46.41550000     -34.22540000     -69.04810000
C      -47.17880000     -34.12780000     -67.88480000
S      -49.44720000     -32.82360000     -71.10880000
S      -48.78580000     -33.48990000     -68.10730000
H      -46.80780000     -34.12730000     -66.86570000
