40
Properties=species:S:1:pos:R:3 #=T CELL(abcABC):=T 1.889726e+02=T 90.00000=T Traj:=T positionsangstrom=T Step:=T 0=T Bead:=T pbc="F F F"
C      -43.33230000     -32.13360000     -67.54830000
C      -44.07500000     -33.16370000     -68.08110000
C      -43.50460000     -34.03980000     -69.02290000
C      -42.20050000     -33.81690000     -69.42000000
C      -41.52730000     -32.70130000     -68.90740000
C      -42.08800000     -31.86630000     -67.96870000
H      -43.82390000     -31.45480000     -66.81240000
H      -44.09510000     -34.88010000     -69.30030000
H      -40.53020000     -32.71250000     -69.33470000
H      -41.53520000     -30.99350000     -67.61250000
C      -41.43830000     -34.64990000     -70.40660000
H      -40.71440000     -35.33980000     -69.85460000
H      -40.90680000     -33.93200000     -71.11750000
C      -45.51890000     -33.33890000     -67.74690000
H      -45.94850000     -34.19660000     -68.22850000
H      -45.53150000     -33.42740000     -66.64010000
S      -42.43870000     -35.87220000     -71.45080000
S      -46.55480000     -31.98540000     -68.27860000
C      -43.49990000     -34.86570000     -72.49880000
H      -43.31020000     -33.83700000     -72.46450000
H      -43.37810000     -35.23950000     -73.53790000
C      -46.90510000     -32.45760000     -69.95840000
H      -47.95440000     -32.38790000     -70.23680000
H      -46.73960000     -33.52990000     -70.03440000
C      -45.97910000     -31.84270000     -71.06120000
H      -45.71050000     -30.77890000     -70.77410000
H      -45.07180000     -32.42440000     -71.23390000
C      -45.03980000     -35.00890000     -72.05530000
H      -45.08050000     -34.46860000     -71.14890000
H      -45.19080000     -36.05740000     -71.70430000
C      -46.11060000     -34.57130000     -73.00340000
C      -46.61760000     -35.43560000     -73.98240000
C      -46.81900000     -33.26100000     -73.06250000
H      -46.17100000     -36.42890000     -74.19650000
C      -47.66710000     -33.19040000     -74.18910000
C      -46.73740000     -31.97250000     -72.38420000
C      -47.44560000     -30.95220000     -72.96390000
S      -47.79670000     -34.74060000     -75.01840000
S      -48.33090000     -31.49250000     -74.37940000
H      -47.51320000     -29.92220000     -72.76220000
