40
Properties=species:S:1:pos:R:3 #=T CELL(abcABC):=T 1.889726e+02=T 90.00000=T Traj:=T positionsangstrom=T Step:=T 0=T Bead:=T pbc="F F F"
C      -40.90280000     -34.04050000     -71.59590000
C      -41.73030000     -32.93590000     -71.41160000
C      -42.75900000     -32.64290000     -72.32890000
C      -42.99020000     -33.53820000     -73.43180000
C      -42.16380000     -34.68660000     -73.57410000
C      -41.07090000     -34.86420000     -72.70360000
H      -40.02190000     -34.28520000     -71.03500000
H      -43.36800000     -31.70940000     -72.25660000
H      -42.50780000     -35.47820000     -74.20810000
H      -40.26670000     -35.58530000     -72.81810000
C      -44.08030000     -33.22190000     -74.36490000
H      -43.99060000     -33.78480000     -75.30520000
H      -44.08870000     -32.13950000     -74.69940000
C      -41.38450000     -31.95560000     -70.23920000
H      -40.31810000     -32.02360000     -69.96770000
H      -41.64430000     -30.89120000     -70.55100000
S      -45.74460000     -33.64450000     -73.76070000
S      -42.38340000     -32.37020000     -68.80690000
C      -45.53340000     -35.36160000     -73.27020000
H      -45.69270000     -36.08120000     -74.02400000
H      -44.40270000     -35.55020000     -73.13040000
C      -44.11250000     -31.77970000     -69.02540000
H      -44.10270000     -30.71530000     -69.32400000
H      -44.61930000     -31.83620000     -68.11010000
C      -44.83870000     -32.66700000     -70.10580000
H      -44.60110000     -32.30030000     -71.09790000
H      -44.48260000     -33.66750000     -70.08900000
C      -46.09960000     -35.61190000     -71.87930000
H      -45.27880000     -35.48930000     -71.09010000
H      -46.34010000     -36.67350000     -71.99630000
C      -47.34180000     -34.89850000     -71.48510000
C      -48.57580000     -35.26260000     -71.82760000
C      -47.28660000     -33.59570000     -70.71870000
H      -48.76680000     -36.18170000     -72.37240000
C      -48.60870000     -33.15410000     -70.52540000
C      -46.36950000     -32.71680000     -70.03620000
C      -47.02290000     -31.77520000     -69.28050000
S      -49.83870000     -34.13700000     -71.33350000
S      -48.77350000     -31.79370000     -69.40820000
H      -46.51580000     -31.03990000     -68.62450000
