40
Properties=species:S:1:pos:R:3 #=T CELL(abcABC):=T 1.889726e+02=T 90.00000=T Traj:=T positionsangstrom=T Step:=T 0=T Bead:=T pbc="F F F"
C      -42.22080000     -31.57480000     -68.85190000
C      -43.15650000     -32.67130000     -68.54660000
C      -43.08870000     -33.90550000     -69.21110000
C      -42.13670000     -34.04660000     -70.24400000
C      -41.24880000     -32.99470000     -70.53950000
C      -41.34140000     -31.76530000     -69.92030000
H      -42.45520000     -30.57430000     -68.44220000
H      -43.77810000     -34.70430000     -68.86370000
H      -40.53870000     -33.15480000     -71.34110000
H      -40.70840000     -30.95920000     -70.18250000
C      -41.94980000     -35.34580000     -70.94270000
H      -41.37520000     -36.03190000     -70.34290000
H      -41.44620000     -35.22200000     -71.88110000
C      -44.21120000     -32.45910000     -67.54530000
H      -44.49200000     -33.44840000     -67.13430000
H      -43.87200000     -31.89740000     -66.67220000
S      -43.51320000     -36.41670000     -71.10870000
S      -45.88760000     -31.60070000     -67.88660000
C      -44.59680000     -35.61370000     -72.35430000
H      -44.36910000     -34.51270000     -72.27640000
H      -44.34190000     -36.00450000     -73.31690000
C      -46.68060000     -32.53720000     -69.36010000
H      -47.62430000     -32.00380000     -69.49460000
H      -46.89380000     -33.55680000     -69.02890000
C      -45.72000000     -32.59000000     -70.60120000
H      -44.93110000     -31.78780000     -70.49080000
H      -45.09730000     -33.49210000     -70.52010000
C      -46.11740000     -35.81000000     -72.03650000
H      -46.16440000     -35.69900000     -70.98130000
H      -46.31560000     -36.85650000     -72.13200000
C      -46.93360000     -34.84930000     -72.89850000
C      -47.69650000     -35.36740000     -73.95910000
C      -47.05480000     -33.43660000     -72.76140000
H      -47.85060000     -36.42880000     -74.13590000
C      -47.77960000     -32.85180000     -73.81370000
C      -46.48590000     -32.39680000     -71.90800000
C      -46.80790000     -31.05120000     -72.32380000
S      -48.54030000     -34.06480000     -74.84810000
S      -47.67120000     -31.11950000     -73.88600000
H      -46.56990000     -30.14210000     -71.83920000
