40
Properties=species:S:1:pos:R:3 #=T CELL(abcABC):=T 1.889726e+02=T 90.00000=T Traj:=T positionsangstrom=T Step:=T 0=T Bead:=T pbc="F F F"
C      -40.94820000     -34.11300000     -71.59000000
C      -41.63340000     -32.89040000     -71.42310000
C      -42.58200000     -32.50650000     -72.43210000
C      -42.90440000     -33.39000000     -73.46940000
C      -42.22480000     -34.65440000     -73.55510000
C      -41.27000000     -34.96120000     -72.62650000
H      -40.20120000     -34.42440000     -70.85310000
H      -42.95930000     -31.46360000     -72.52080000
H      -42.46320000     -35.29580000     -74.35730000
H      -40.64550000     -35.80220000     -72.90790000
C      -43.98760000     -33.12700000     -74.42780000
H      -43.84980000     -33.67930000     -75.33040000
H      -44.03180000     -32.06500000     -74.57820000
C      -41.40460000     -31.81870000     -70.35100000
H      -40.36620000     -31.64780000     -70.14620000
H      -41.80480000     -30.86720000     -70.52630000
S      -45.74060000     -33.58780000     -73.77620000
S      -42.30820000     -32.37770000     -68.77780000
C      -45.63650000     -35.36930000     -73.32970000
H      -46.30820000     -35.95230000     -74.03240000
H      -44.60740000     -35.62540000     -73.48070000
C      -44.09840000     -32.18550000     -69.03650000
H      -44.26290000     -31.09220000     -69.25180000
H      -44.50000000     -32.34410000     -68.01930000
C      -44.79230000     -33.08040000     -70.04740000
H      -44.50390000     -32.98740000     -71.06680000
H      -44.53040000     -34.12810000     -69.66950000
C      -46.15030000     -35.60270000     -71.93070000
H      -45.35430000     -35.44560000     -71.23220000
H      -46.45180000     -36.66650000     -71.84550000
C      -47.43480000     -34.75710000     -71.55740000
C      -48.63880000     -35.04080000     -72.06740000
C      -47.41250000     -33.68190000     -70.57330000
H      -48.97480000     -35.63120000     -72.93610000
C      -48.70870000     -33.19240000     -70.37700000
C      -46.38810000     -32.86250000     -69.89540000
C      -46.94700000     -31.84440000     -69.14560000
S      -49.84070000     -33.99990000     -71.44860000
S      -48.69940000     -31.81540000     -69.27860000
H      -46.54570000     -31.14690000     -68.46400000
