40
Properties=species:S:1:pos:R:3 #=T CELL(abcABC):=T 1.889726e+02=T 90.00000=T Traj:=T positionsangstrom=T Step:=T 0=T Bead:=T pbc="F F F"
C      -42.33840000     -31.63200000     -68.48180000
C      -43.31710000     -32.67070000     -68.37070000
C      -43.14690000     -33.88800000     -69.15090000
C      -42.12850000     -33.95020000     -70.12280000
C      -41.19100000     -32.93260000     -70.11800000
C      -41.17650000     -31.80800000     -69.31510000
H      -42.37630000     -30.74950000     -67.84620000
H      -43.85260000     -34.72730000     -69.05620000
H      -40.30970000     -33.01480000     -70.75990000
H      -40.34670000     -31.10680000     -69.37750000
C      -41.92310000     -35.15330000     -71.04130000
H      -41.15530000     -35.80120000     -70.62040000
H      -41.63130000     -34.72620000     -72.09690000
C      -44.46700000     -32.51220000     -67.47320000
H      -44.68100000     -33.52330000     -67.03010000
H      -44.30850000     -31.78590000     -66.62490000
S      -43.35670000     -36.28990000     -71.11650000
S      -46.06980000     -31.77330000     -68.16050000
C      -44.53680000     -35.53250000     -72.35730000
H      -44.19940000     -34.47250000     -72.44760000
H      -44.42830000     -36.00810000     -73.36830000
C      -46.32650000     -32.89940000     -69.63880000
H      -47.41980000     -32.94380000     -69.68800000
H      -46.01070000     -33.87330000     -69.26120000
C      -45.58910000     -32.33320000     -70.88360000
H      -45.36470000     -31.28280000     -70.67440000
H      -44.71530000     -32.94770000     -71.23570000
C      -45.96460000     -35.58880000     -71.84290000
H      -45.91780000     -35.08680000     -70.84680000
H      -46.24330000     -36.64660000     -71.79040000
C      -46.73250000     -34.80260000     -72.90950000
C      -47.21410000     -35.36690000     -74.03960000
C      -47.00410000     -33.36800000     -72.83260000
H      -47.06600000     -36.43100000     -74.35940000
C      -47.88820000     -32.92890000     -73.86790000
C      -46.62080000     -32.22790000     -71.98010000
C      -47.20450000     -31.06260000     -72.38170000
S      -48.25610000     -34.25620000     -74.97820000
S      -48.16320000     -31.14790000     -73.85060000
H      -46.81760000     -30.16190000     -72.06050000
