40
Properties=species:S:1:pos:R:3 #=T CELL(abcABC):=T 1.889726e+02=T 90.00000=T Traj:=T positionsangstrom=T Step:=T 0=T Bead:=T pbc="F F F"
C      -41.03680000     -34.26300000     -71.91900000
C      -41.84470000     -33.10280000     -71.69730000
C      -42.75970000     -32.69250000     -72.72330000
C      -42.96290000     -33.34480000     -73.95450000
C      -42.15670000     -34.48910000     -74.14710000
C      -41.24750000     -34.89500000     -73.12220000
H      -40.17850000     -34.61340000     -71.30410000
H      -43.25800000     -31.77190000     -72.54150000
H      -42.15600000     -35.10060000     -75.08420000
H      -40.52740000     -35.73140000     -73.25780000
C      -43.85880000     -32.84270000     -75.07620000
H      -43.53540000     -33.16910000     -76.07630000
H      -43.72610000     -31.74010000     -75.03940000
C      -41.65440000     -32.34230000     -70.42860000
H      -40.64240000     -31.97600000     -70.20070000
H      -42.09380000     -31.33390000     -70.61350000
S      -45.66260000     -33.15890000     -74.73720000
S      -42.45950000     -33.01910000     -68.86510000
C      -45.54910000     -34.53580000     -73.59570000
H      -46.23890000     -35.28500000     -73.93230000
H      -44.60010000     -35.08910000     -73.88700000
C      -44.29240000     -32.58480000     -69.20240000
H      -44.50420000     -32.49910000     -70.27550000
H      -44.50880000     -31.59200000     -68.84210000
C      -45.08300000     -33.70810000     -68.52640000
H      -44.85800000     -34.68740000     -68.95630000
H      -44.85370000     -33.63120000     -67.46350000
C      -45.55850000     -34.16750000     -72.16080000
H      -44.78740000     -33.34900000     -71.98050000
H      -45.08920000     -35.10390000     -71.67950000
C      -46.92820000     -33.76050000     -71.57690000
C      -48.05830000     -33.69780000     -72.32050000
C      -47.19190000     -33.51860000     -70.16260000
H      -48.14150000     -33.91310000     -73.39130000
C      -48.58030000     -33.17550000     -70.03900000
C      -46.61390000     -33.46140000     -68.86210000
C      -47.51270000     -33.28070000     -67.85610000
S      -49.52220000     -33.20250000     -71.44480000
S      -49.09150000     -32.93720000     -68.40470000
H      -47.23370000     -33.08250000     -66.80470000
