40
Properties=species:S:1:pos:R:3 #=T CELL(abcABC):=T 1.889726e+02=T 90.00000=T Traj:=T positionsangstrom=T Step:=T 0=T Bead:=T pbc="F F F"
C      -42.76130000     -31.70240000     -69.23430000
C      -43.35350000     -32.90510000     -68.68350000
C      -43.08460000     -34.15820000     -69.10470000
C      -42.19290000     -34.29950000     -70.22790000
C      -41.60500000     -33.18170000     -70.77970000
C      -41.89070000     -31.85620000     -70.28450000
H      -42.94510000     -30.73070000     -68.73060000
H      -43.60090000     -35.01950000     -68.71500000
H      -40.86230000     -33.29140000     -71.57320000
H      -41.31720000     -31.11740000     -70.85420000
C      -41.92900000     -35.70180000     -70.81690000
H      -41.38210000     -36.31920000     -70.17120000
H      -41.39880000     -35.71580000     -71.73620000
C      -44.33960000     -32.69170000     -67.62330000
H      -44.95150000     -33.61590000     -67.48100000
H      -44.05920000     -32.52420000     -66.57430000
S      -43.50290000     -36.66610000     -71.10070000
S      -45.54330000     -31.34250000     -67.96190000
C      -44.50130000     -35.55380000     -72.19110000
H      -44.14450000     -34.57400000     -72.00750000
H      -44.29160000     -35.73920000     -73.23940000
C      -46.49550000     -32.07240000     -69.34990000
H      -47.31070000     -31.35700000     -69.56030000
H      -46.92910000     -33.02820000     -69.01890000
C      -45.64070000     -32.28110000     -70.57310000
H      -44.94780000     -31.51910000     -70.61710000
H      -45.19320000     -33.28690000     -70.58900000
C      -46.00590000     -35.64300000     -71.83930000
H      -46.10810000     -35.26870000     -70.82570000
H      -46.15920000     -36.69530000     -71.98550000
C      -46.87610000     -34.78650000     -72.73350000
C      -47.58190000     -35.30820000     -73.79890000
C      -46.85630000     -33.27790000     -72.72180000
H      -47.55910000     -36.25250000     -74.22760000
C      -47.67010000     -32.83810000     -73.73660000
C      -46.51210000     -32.22620000     -71.81990000
C      -46.85540000     -30.97980000     -72.32070000
S      -48.33870000     -34.01750000     -74.84850000
S      -47.85090000     -31.11630000     -73.78690000
H      -46.62570000     -29.96580000     -71.91130000
