40
Properties=species:S:1:pos:R:3 #=T CELL(abcABC):=T 1.889726e+02=T 90.00000=T Traj:=T positionsangstrom=T Step:=T 0=T Bead:=T pbc="F F F"
C      -43.76400000     -36.79200000     -72.35520000
C      -44.65560000     -35.64270000     -72.47530000
C      -44.10420000     -34.41320000     -71.99370000
C      -42.81390000     -34.30090000     -71.57880000
C      -41.99300000     -35.43140000     -71.41200000
C      -42.46980000     -36.68380000     -71.84790000
H      -44.03840000     -37.77930000     -72.59580000
H      -44.61760000     -33.45530000     -72.14710000
H      -40.90860000     -35.39020000     -71.16260000
H      -41.80450000     -37.52170000     -71.71650000
C      -42.27160000     -32.89990000     -71.43970000
H      -42.87990000     -32.33240000     -72.04260000
H      -41.17140000     -32.88850000     -71.74180000
C      -46.18050000     -35.74030000     -72.83090000
H      -46.45550000     -34.77390000     -73.14810000
H      -46.34960000     -36.42040000     -73.65620000
S      -42.37680000     -32.27460000     -69.56660000
S      -47.21840000     -36.34020000     -71.43320000
C      -43.91550000     -33.04990000     -68.86860000
H      -44.09210000     -33.98570000     -69.42420000
H      -43.71600000     -33.38840000     -67.82420000
C      -46.86220000     -35.26470000     -69.96250000
H      -45.80860000     -34.91090000     -70.00930000
H      -47.04440000     -35.94310000     -69.12920000
C      -47.74650000     -34.04240000     -69.78150000
H      -48.79890000     -34.37220000     -69.67090000
H      -47.62010000     -33.62710000     -68.82640000
C      -45.11130000     -32.04210000     -68.79870000
H      -44.91420000     -31.22500000     -68.06300000
H      -45.89840000     -32.55170000     -68.26220000
C      -45.62310000     -31.52100000     -70.14640000
C      -44.82220000     -30.59320000     -70.76740000
C      -46.70540000     -31.91970000     -70.98810000
H      -43.85400000     -30.23530000     -70.39230000
C      -46.73480000     -31.19220000     -72.18980000
C      -47.64440000     -33.00060000     -70.93190000
C      -48.34190000     -33.13460000     -72.08650000
S      -45.44690000     -30.05560000     -72.30970000
S      -47.79950000     -31.87590000     -73.33630000
H      -49.15000000     -33.92120000     -72.31670000
