40
Properties=species:S:1:pos:R:3 #=T CELL(abcABC):=T 1.889726e+02=T 90.00000=T Traj:=T positionsangstrom=T Step:=T 0=T Bead:=T pbc="F F F"
C      -43.84240000     -36.76260000     -72.09680000
C      -44.69850000     -35.70140000     -72.23660000
C      -44.23860000     -34.41830000     -72.04480000
C      -42.87340000     -34.14460000     -71.68310000
C      -42.00260000     -35.23660000     -71.65210000
C      -42.50030000     -36.47170000     -71.89480000
H      -44.14790000     -37.80360000     -72.27710000
H      -44.87800000     -33.56940000     -72.07820000
H      -40.97260000     -35.03560000     -71.47980000
H      -41.88840000     -37.37330000     -71.74160000
C      -42.49300000     -32.74750000     -71.50210000
H      -43.31790000     -32.07440000     -71.86870000
H      -41.60540000     -32.48920000     -72.04000000
C      -46.13850000     -35.89520000     -72.62020000
H      -46.38990000     -34.92660000     -72.98930000
H      -46.28940000     -36.57310000     -73.45380000
S      -42.26630000     -32.42260000     -69.67490000
S      -47.27230000     -36.60170000     -71.32710000
C      -43.87730000     -32.98850000     -68.94410000
H      -44.24720000     -33.65460000     -69.77790000
H      -43.62000000     -33.59710000     -68.04450000
C      -46.97490000     -35.42100000     -69.92330000
H      -45.90520000     -35.15810000     -69.86000000
H      -47.18690000     -35.91300000     -68.94680000
C      -47.66880000     -34.05910000     -69.90840000
H      -48.67520000     -34.43960000     -70.00710000
H      -47.56470000     -33.60010000     -68.93360000
C      -44.99990000     -31.92290000     -68.73360000
H      -44.65860000     -31.07830000     -68.22770000
H      -45.89610000     -32.35740000     -68.31120000
C      -45.45450000     -31.46390000     -70.14570000
C      -44.88180000     -30.36090000     -70.68560000
C      -46.50030000     -31.95010000     -71.03030000
H      -44.13500000     -29.62140000     -70.27400000
C      -46.63880000     -31.26870000     -72.20580000
C      -47.46950000     -33.05780000     -71.07930000
C      -48.30420000     -33.19290000     -72.15150000
S      -45.55700000     -29.86450000     -72.22390000
S      -47.78430000     -31.92900000     -73.37160000
H      -48.94310000     -33.97800000     -72.36190000
