40
Properties=species:S:1:pos:R:3 #=T CELL(abcABC):=T 1.889726e+02=T 90.00000=T Traj:=T positionsangstrom=T Step:=T 0=T Bead:=T pbc="F F F"
C      -43.28020000     -36.72520000     -71.74530000
C      -44.15820000     -35.76950000     -72.23250000
C      -43.80880000     -34.41280000     -72.17000000
C      -42.51510000     -34.02800000     -71.76080000
C      -41.66900000     -35.00230000     -71.15370000
C      -42.05600000     -36.35010000     -71.18550000
H      -43.56680000     -37.77550000     -71.63360000
H      -44.50900000     -33.66680000     -72.50810000
H      -40.74090000     -34.67990000     -70.68250000
H      -41.46960000     -37.23930000     -70.78150000
C      -42.29010000     -32.53760000     -71.48410000
H      -43.03140000     -31.96090000     -72.00480000
H      -41.30580000     -32.11930000     -71.68820000
C      -45.41360000     -36.09650000     -72.99610000
H      -45.65160000     -35.39840000     -73.67050000
H      -45.32890000     -36.95060000     -73.69080000
S      -42.46920000     -32.09510000     -69.71630000
S      -46.93900000     -36.27580000     -72.10480000
C      -43.91150000     -33.03290000     -69.07970000
H      -44.16610000     -33.82830000     -69.81560000
H      -43.60140000     -33.60210000     -68.14930000
C      -46.58890000     -35.68970000     -70.39380000
H      -45.49250000     -35.41690000     -70.43560000
H      -46.80060000     -36.55470000     -69.73370000
C      -47.56360000     -34.51120000     -69.96520000
H      -48.62740000     -34.82880000     -69.85530000
H      -47.23130000     -34.18870000     -68.93210000
C      -45.17830000     -32.16930000     -68.82600000
H      -44.91730000     -31.34760000     -68.17270000
H      -45.92750000     -32.79510000     -68.31060000
C      -45.71620000     -31.66050000     -70.15830000
C      -45.22950000     -30.46190000     -70.68570000
C      -46.76100000     -32.14100000     -70.86300000
H      -44.41330000     -29.83450000     -70.44930000
C      -47.11340000     -31.31440000     -71.95890000
C      -47.59640000     -33.32710000     -70.92680000
C      -48.48260000     -33.26800000     -71.97300000
S      -46.07610000     -29.95090000     -72.16520000
S      -48.36550000     -31.86590000     -72.97110000
H      -49.19280000     -34.01170000     -72.38500000
