40
Properties=species:S:1:pos:R:3 #=T CELL(abcABC):=T 1.889726e+02=T 90.00000=T Traj:=T positionsangstrom=T Step:=T 0=T Bead:=T pbc="F F F"
C      -43.16540000     -36.68130000     -72.03920000
C      -44.09750000     -35.70380000     -72.39730000
C      -43.75920000     -34.34000000     -72.31760000
C      -42.53850000     -33.95120000     -71.70260000
C      -41.61740000     -34.95050000     -71.24820000
C      -41.97760000     -36.28250000     -71.39020000
H      -43.36620000     -37.70150000     -72.24930000
H      -44.45550000     -33.52700000     -72.66180000
H      -40.71920000     -34.66280000     -70.67710000
H      -41.20560000     -36.98040000     -71.03790000
C      -42.18810000     -32.49750000     -71.48860000
H      -42.79490000     -31.87890000     -72.16710000
H      -41.08530000     -32.35430000     -71.59540000
C      -45.36030000     -36.18610000     -73.04330000
H      -45.60710000     -35.49720000     -73.86180000
H      -45.06760000     -37.22500000     -73.39330000
S      -42.52180000     -31.96410000     -69.70250000
S      -46.86890000     -36.45650000     -71.99690000
C      -43.89170000     -33.06170000     -69.08470000
H      -44.06650000     -33.84890000     -69.80810000
H      -43.72930000     -33.55870000     -68.14650000
C      -46.61710000     -35.54660000     -70.44040000
H      -45.69870000     -35.03960000     -70.44350000
H      -46.40400000     -36.23910000     -69.65290000
C      -47.68530000     -34.49960000     -69.98010000
H      -48.69580000     -34.92250000     -70.17990000
H      -47.49580000     -34.35420000     -68.95130000
C      -45.25020000     -32.38620000     -68.86090000
H      -45.14650000     -31.56590000     -68.14540000
H      -45.92320000     -33.10680000     -68.49730000
C      -45.72270000     -31.75700000     -70.12920000
C      -45.29320000     -30.47350000     -70.52790000
C      -46.71250000     -32.23000000     -70.98310000
H      -44.55850000     -29.90690000     -70.00930000
C      -47.04300000     -31.36640000     -72.07770000
C      -47.71200000     -33.30180000     -70.85450000
C      -48.71240000     -33.22470000     -71.78830000
S      -45.98480000     -29.93430000     -72.02600000
S      -48.48270000     -31.85080000     -72.92160000
H      -49.54620000     -33.94000000     -71.81840000
