40
Properties=species:S:1:pos:R:3 #=T CELL(abcABC):=T 1.889726e+02=T 90.00000=T Traj:=T positionsangstrom=T Step:=T 0=T Bead:=T pbc="F F F"
C      -43.68960000     -36.88860000     -71.84560000
C      -44.45500000     -35.81720000     -72.39920000
C      -43.98420000     -34.48650000     -72.28560000
C      -42.80850000     -34.18380000     -71.56950000
C      -42.00460000     -35.27480000     -71.10320000
C      -42.44200000     -36.59340000     -71.30030000
H      -44.13390000     -37.84550000     -71.96580000
H      -44.58460000     -33.70180000     -72.78430000
H      -41.17920000     -35.08710000     -70.39740000
H      -41.72100000     -37.29680000     -70.93970000
C      -42.49680000     -32.68020000     -71.37490000
H      -43.16390000     -32.02550000     -71.95860000
H      -41.43040000     -32.46550000     -71.77420000
C      -45.77470000     -36.18560000     -72.99780000
H      -46.27390000     -35.42090000     -73.51120000
H      -45.82490000     -37.00940000     -73.65610000
S      -42.39830000     -32.15460000     -69.64650000
S      -47.11900000     -36.54850000     -71.74380000
C      -43.95210000     -32.84600000     -68.82910000
H      -44.23760000     -33.84110000     -69.18460000
H      -43.63740000     -32.87400000     -67.75350000
C      -46.54080000     -35.54070000     -70.30050000
H      -45.55530000     -35.26080000     -70.65090000
H      -46.48990000     -36.13520000     -69.36120000
C      -47.41180000     -34.27870000     -69.95530000
H      -48.44240000     -34.62760000     -69.78110000
H      -46.97390000     -33.89280000     -69.04930000
C      -45.10100000     -31.78720000     -68.80290000
H      -44.81670000     -30.88700000     -68.19320000
H      -45.87600000     -32.34040000     -68.37220000
C      -45.58090000     -31.26580000     -70.16280000
C      -45.08740000     -30.11590000     -70.80170000
C      -46.69080000     -31.97180000     -70.87770000
H      -44.28730000     -29.48950000     -70.26940000
C      -46.85910000     -31.25960000     -72.11220000
C      -47.41790000     -33.24140000     -70.99090000
C      -48.23540000     -33.27990000     -72.09450000
S      -45.83180000     -29.91370000     -72.33980000
S      -48.00290000     -31.93070000     -73.16840000
H      -48.88510000     -34.09560000     -72.24480000
