40
Properties=species:S:1:pos:R:3 #=T CELL(abcABC):=T 1.889726e+02=T 90.00000=T Traj:=T positionsangstrom=T Step:=T 0=T Bead:=T pbc="F F F"
C      -42.56100000     -36.71480000     -71.57360000
C      -43.40760000     -36.20020000     -72.52370000
C      -43.19900000     -34.90120000     -73.00720000
C      -42.26910000     -34.08280000     -72.44380000
C      -41.51900000     -34.50810000     -71.32830000
C      -41.61080000     -35.90030000     -70.94700000
H      -42.57930000     -37.75320000     -71.28930000
H      -43.82690000     -34.48810000     -73.75620000
H      -40.94370000     -33.83080000     -70.75770000
H      -40.97260000     -36.29750000     -70.12600000
C      -42.07330000     -32.70240000     -73.07560000
H      -42.70010000     -32.63270000     -74.04450000
H      -40.98350000     -32.39510000     -73.39140000
C      -44.44300000     -37.01320000     -73.24320000
H      -44.07980000     -37.26790000     -74.20420000
H      -44.50640000     -38.02930000     -72.82840000
S      -42.45470000     -31.26140000     -71.96040000
S      -46.06710000     -36.17770000     -73.59600000
C      -44.18580000     -31.57560000     -71.45900000
H      -44.50350000     -30.59150000     -71.12070000
H      -44.78580000     -31.91880000     -72.31940000
C      -46.41280000     -35.12610000     -72.12410000
H      -45.55090000     -35.06990000     -71.50100000
H      -47.25410000     -35.49250000     -71.56140000
C      -46.67530000     -33.69450000     -72.53900000
H      -45.65030000     -33.29230000     -72.71870000
H      -47.22100000     -33.71610000     -73.44750000
C      -44.42460000     -32.61560000     -70.34030000
H      -43.68420000     -32.59470000     -69.52830000
H      -44.47390000     -33.61010000     -70.72910000
C      -45.72050000     -32.21440000     -69.55540000
C      -45.82620000     -31.61980000     -68.34980000
C      -46.91950000     -32.26720000     -70.29670000
H      -45.05010000     -31.52220000     -67.54850000
C      -48.00430000     -31.75150000     -69.56650000
C      -47.45630000     -32.81710000     -71.54170000
C      -48.74870000     -32.49590000     -71.81580000
S      -47.49300000     -31.25790000     -68.01090000
S      -49.53130000     -31.68980000     -70.43300000
H      -49.42610000     -32.90020000     -72.55220000
