40
Properties=species:S:1:pos:R:3 #=T CELL(abcABC):=T 1.889726e+02=T 90.00000=T Traj:=T positionsangstrom=T Step:=T 0=T Bead:=T pbc="F F F"
C      -43.72270000     -36.92300000     -71.96990000
C      -44.51440000     -35.84900000     -72.42150000
C      -44.09250000     -34.50960000     -72.30300000
C      -42.87300000     -34.16520000     -71.66160000
C      -42.12480000     -35.26230000     -71.13200000
C      -42.53950000     -36.55160000     -71.29570000
H      -44.15690000     -37.92350000     -72.09350000
H      -44.76160000     -33.71670000     -72.60660000
H      -41.16470000     -34.98770000     -70.68440000
H      -41.81580000     -37.36500000     -70.92690000
C      -42.43560000     -32.77060000     -71.51940000
H      -42.95910000     -32.05910000     -72.14990000
H      -41.39860000     -32.59250000     -71.90210000
C      -45.90290000     -36.05330000     -72.89030000
H      -46.31450000     -35.08900000     -73.25060000
H      -46.06490000     -36.88640000     -73.68630000
S      -42.43420000     -32.28670000     -69.66190000
S      -47.02430000     -36.57040000     -71.47270000
C      -43.99550000     -32.92740000     -68.98290000
H      -44.46220000     -33.72830000     -69.52340000
H      -43.77990000     -33.33590000     -68.00910000
C      -46.65070000     -35.50490000     -70.11170000
H      -45.53640000     -35.34450000     -70.14470000
H      -46.79780000     -36.04200000     -69.20330000
C      -47.47620000     -34.16400000     -69.91150000
H      -48.46610000     -34.56410000     -69.75030000
H      -47.24840000     -33.59160000     -68.99090000
C      -45.06470000     -31.76310000     -68.88180000
H      -44.67410000     -30.94640000     -68.24990000
H      -45.95040000     -32.16310000     -68.31930000
C      -45.57720000     -31.32350000     -70.25320000
C      -45.09930000     -30.08510000     -70.65220000
C      -46.57940000     -31.99780000     -71.03280000
H      -44.25150000     -29.55520000     -70.12150000
C      -46.70350000     -31.28100000     -72.25350000
C      -47.41680000     -33.15210000     -70.99050000
C      -48.09910000     -33.32090000     -72.17550000
S      -45.78080000     -29.73390000     -72.26830000
S      -47.95990000     -31.99820000     -73.24790000
H      -48.57450000     -34.18150000     -72.53920000
