40
Properties=species:S:1:pos:R:3 #=T CELL(abcABC):=T 1.889726e+02=T 90.00000=T Traj:=T positionsangstrom=T Step:=T 0=T Bead:=T pbc="F F F"
C      -43.44360000     -36.82580000     -71.75460000
C      -44.25480000     -35.83490000     -72.33700000
C      -43.87650000     -34.46690000     -72.32650000
C      -42.66370000     -34.06970000     -71.71330000
C      -41.86870000     -35.04030000     -71.10400000
C      -42.25810000     -36.41400000     -71.09750000
H      -43.56150000     -37.93410000     -71.70900000
H      -44.53910000     -33.79070000     -72.75520000
H      -40.96230000     -34.63470000     -70.70410000
H      -41.69640000     -37.18760000     -70.59730000
C      -42.32230000     -32.59760000     -71.50070000
H      -43.00300000     -31.89520000     -72.07820000
H      -41.38410000     -32.28200000     -71.97590000
C      -45.48990000     -36.20770000     -73.09910000
H      -45.68110000     -35.47360000     -73.90710000
H      -45.40510000     -37.28090000     -73.40770000
S      -42.26090000     -32.13250000     -69.57590000
S      -47.07190000     -36.18690000     -72.03970000
C      -43.75660000     -32.94070000     -68.92910000
H      -43.92790000     -33.79560000     -69.53950000
H      -43.47800000     -33.31750000     -67.92620000
C      -46.57340000     -35.48900000     -70.42990000
H      -45.56880000     -35.05390000     -70.40790000
H      -46.53040000     -36.28370000     -69.68540000
C      -47.56500000     -34.41630000     -69.96000000
H      -48.48560000     -34.91910000     -69.83980000
H      -47.37940000     -34.07880000     -68.91370000
C      -45.05830000     -32.10760000     -68.84330000
H      -45.00000000     -31.19440000     -68.24220000
H      -45.85110000     -32.68360000     -68.25330000
C      -45.65370000     -31.58290000     -70.14600000
C      -45.18780000     -30.39780000     -70.63110000
C      -46.76470000     -32.11990000     -70.99750000
H      -44.35330000     -29.77300000     -70.27610000
C      -47.02060000     -31.34550000     -72.11090000
C      -47.65640000     -33.34850000     -70.93190000
C      -48.46240000     -33.33580000     -71.99500000
S      -46.02680000     -29.89690000     -72.13790000
S      -48.28400000     -31.97050000     -73.08880000
H      -49.24360000     -34.13940000     -72.18480000
