40
Properties=species:S:1:pos:R:3 #=T CELL(abcABC):=T 1.889726e+02=T 90.00000=T Traj:=T positionsangstrom=T Step:=T 0=T Bead:=T pbc="F F F"
C      -43.19450000     -36.02270000     -72.86480000
C      -44.24930000     -35.08700000     -73.02110000
C      -44.03280000     -33.80800000     -72.46170000
C      -42.81580000     -33.47320000     -71.79660000
C      -41.79760000     -34.44210000     -71.67350000
C      -41.98270000     -35.69950000     -72.27570000
H      -43.26210000     -37.05690000     -73.07530000
H      -44.75820000     -33.03590000     -72.46920000
H      -40.91960000     -34.10210000     -71.15380000
H      -41.16670000     -36.41630000     -72.20040000
C      -42.70780000     -32.18830000     -71.05320000
H      -43.62360000     -31.65290000     -71.15740000
H      -41.87790000     -31.55520000     -71.33940000
C      -45.69520000     -35.43820000     -73.44040000
H      -46.35420000     -34.59810000     -73.54650000
H      -45.74410000     -35.88150000     -74.44670000
S      -42.46760000     -32.62120000     -69.21380000
S      -46.46040000     -36.64880000     -72.26900000
C      -44.08520000     -33.42750000     -68.78460000
H      -44.28480000     -34.10600000     -69.60660000
H      -43.87160000     -33.89720000     -67.81360000
C      -46.15240000     -35.92410000     -70.62600000
H      -45.09890000     -35.50980000     -70.66770000
H      -46.17040000     -36.77180000     -69.93470000
C      -47.20040000     -34.95000000     -70.14030000
H      -48.11260000     -35.47450000     -70.09140000
H      -46.96320000     -34.71120000     -69.14460000
C      -45.29070000     -32.48690000     -68.64840000
H      -45.09100000     -31.76280000     -67.90880000
H      -46.18630000     -33.06940000     -68.27570000
C      -45.83160000     -31.77520000     -69.83650000
C      -45.52040000     -30.44780000     -70.11770000
C      -46.78950000     -32.36450000     -70.76960000
H      -44.83240000     -29.83120000     -69.52070000
C      -47.26030000     -31.37660000     -71.65220000
C      -47.35180000     -33.70780000     -71.02300000
C      -48.17400000     -33.62900000     -72.10830000
S      -46.44690000     -29.77940000     -71.44150000
S      -48.14890000     -32.05270000     -72.94360000
H      -48.50100000     -34.48030000     -72.61380000
