40
Properties=species:S:1:pos:R:3 #=T CELL(abcABC):=T 1.889726e+02=T 90.00000=T Traj:=T positionsangstrom=T Step:=T 0=T Bead:=T pbc="F F F"
C      -42.11820000     -36.42940000     -71.82620000
C      -43.17470000     -35.96460000     -72.54080000
C      -43.11420000     -34.63700000     -73.08100000
C      -42.05230000     -33.83760000     -72.74310000
C      -40.91990000     -34.43860000     -72.22080000
C      -40.97180000     -35.68320000     -71.63940000
H      -42.07030000     -37.35410000     -71.27250000
H      -43.96200000     -34.26770000     -73.70360000
H      -40.05890000     -33.79900000     -72.06080000
H      -40.08880000     -36.10190000     -71.18770000
C      -42.12650000     -32.45560000     -73.28560000
H      -43.06680000     -32.35840000     -73.94210000
H      -41.25890000     -32.16240000     -73.93400000
C      -44.27600000     -36.99030000     -72.80690000
H      -43.91070000     -37.78620000     -73.48990000
H      -44.43630000     -37.60200000     -71.82420000
S      -42.33010000     -31.10280000     -72.08530000
S      -45.84250000     -36.35630000     -73.43750000
C      -44.15030000     -31.20220000     -71.56320000
H      -44.29120000     -30.23680000     -71.14700000
H      -44.71190000     -31.29600000     -72.50900000
C      -46.81690000     -35.58550000     -71.99060000
H      -46.28020000     -35.62860000     -71.04680000
H      -47.70580000     -36.18640000     -71.70520000
C      -47.21270000     -34.15980000     -72.36800000
H      -46.33430000     -33.68570000     -72.60910000
H      -48.01810000     -34.23280000     -73.13800000
C      -44.52950000     -32.32730000     -70.63170000
H      -43.72730000     -32.42140000     -69.89010000
H      -44.60710000     -33.28700000     -71.15350000
C      -45.86840000     -31.98660000     -69.88280000
C      -45.90290000     -31.09870000     -68.79390000
C      -47.21010000     -32.46210000     -70.20590000
H      -45.18360000     -30.57230000     -68.22280000
C      -48.13290000     -31.91560000     -69.31470000
C      -47.84510000     -33.30790000     -71.21090000
C      -49.17780000     -33.34620000     -71.07100000
S      -47.47780000     -30.79200000     -68.15900000
S      -49.79710000     -32.28810000     -69.74930000
H      -49.90970000     -34.01790000     -71.46880000
