40
Properties=species:S:1:pos:R:3 #=T CELL(abcABC):=T 1.889726e+02=T 90.00000=T Traj:=T positionsangstrom=T Step:=T 0=T Bead:=T pbc="F F F"
C      -43.02080000     -36.18100000     -72.70830000
C      -43.92110000     -35.09220000     -72.92980000
C      -43.59230000     -33.85950000     -72.43890000
C      -42.50090000     -33.70870000     -71.60180000
C      -41.60660000     -34.72880000     -71.34580000
C      -41.89230000     -35.95430000     -71.94690000
H      -43.28600000     -37.20730000     -73.17270000
H      -44.08420000     -32.92380000     -72.67350000
H      -40.65960000     -34.59770000     -70.64590000
H      -41.07160000     -36.71590000     -71.76740000
C      -42.28260000     -32.28340000     -71.04010000
H      -42.76360000     -31.51650000     -71.64170000
H      -41.23600000     -31.97850000     -71.07550000
C      -45.24000000     -35.23260000     -73.73110000
H      -45.56300000     -34.20420000     -73.94620000
H      -45.03170000     -35.81690000     -74.61850000
S      -42.73590000     -32.05950000     -69.30770000
S      -46.54950000     -36.27500000     -72.87310000
C      -43.96730000     -33.38410000     -68.91750000
H      -44.01610000     -34.05500000     -69.73570000
H      -43.59120000     -33.99730000     -68.15650000
C      -46.32930000     -36.01320000     -70.99310000
H      -45.34350000     -35.60480000     -70.84940000
H      -46.55400000     -37.04030000     -70.60640000
C      -47.34320000     -35.04400000     -70.32260000
H      -48.29700000     -35.42620000     -70.21860000
H      -47.03860000     -34.90280000     -69.29400000
C      -45.31980000     -32.71470000     -68.46160000
H      -45.17300000     -31.93700000     -67.66540000
H      -45.93540000     -33.42390000     -68.07290000
C      -46.00700000     -31.96770000     -69.64530000
C      -45.75360000     -30.60750000     -69.81540000
C      -46.82260000     -32.47650000     -70.70280000
H      -45.09030000     -30.11920000     -69.12540000
C      -47.23520000     -31.48730000     -71.57840000
C      -47.52540000     -33.72300000     -71.00900000
C      -48.38340000     -33.65450000     -72.08920000
S      -46.53150000     -29.94250000     -71.22620000
S      -48.31660000     -32.06710000     -72.82410000
H      -49.23360000     -34.34630000     -72.24890000
