40
Properties=species:S:1:pos:R:3 #=T CELL(abcABC):=T 1.889726e+02=T 90.00000=T Traj:=T positionsangstrom=T Step:=T 0=T Bead:=T pbc="F F F"
C      -43.23370000     -36.09700000     -72.60510000
C      -44.14940000     -35.11930000     -72.93540000
C      -43.83960000     -33.78230000     -72.48740000
C      -42.70640000     -33.54470000     -71.69290000
C      -41.68930000     -34.56070000     -71.54190000
C      -41.95260000     -35.79800000     -72.06870000
H      -43.26570000     -37.12830000     -73.03770000
H      -44.50680000     -32.94440000     -72.55260000
H      -40.67600000     -34.25440000     -71.07850000
H      -41.30910000     -36.58040000     -71.73340000
C      -42.43150000     -32.22070000     -71.08960000
H      -43.18310000     -31.51050000     -71.43590000
H      -41.40350000     -31.89870000     -71.31850000
C      -45.36100000     -35.49160000     -73.69820000
H      -45.98900000     -34.59250000     -73.98680000
H      -45.07180000     -36.04520000     -74.56360000
S      -42.51400000     -32.34180000     -69.22190000
S      -46.50650000     -36.47860000     -72.54740000
C      -44.05610000     -33.37600000     -68.98730000
H      -44.25390000     -33.95220000     -69.90970000
H      -43.72530000     -34.10850000     -68.19660000
C      -46.18320000     -35.84970000     -70.86260000
H      -45.24610000     -35.20860000     -70.82610000
H      -45.86460000     -36.65130000     -70.28300000
C      -47.31090000     -34.96700000     -70.24590000
H      -48.31100000     -35.49630000     -70.19010000
H      -47.06340000     -34.79550000     -69.14950000
C      -45.35610000     -32.63860000     -68.57880000
H      -45.13270000     -32.03990000     -67.70380000
H      -46.08530000     -33.41600000     -68.13790000
C      -45.97280000     -31.88010000     -69.67710000
C      -45.73690000     -30.53220000     -69.84970000
C      -46.77330000     -32.42600000     -70.75480000
H      -45.19960000     -29.87080000     -69.16200000
C      -47.09660000     -31.51290000     -71.69800000
C      -47.44380000     -33.71190000     -71.05830000
C      -48.25880000     -33.62700000     -72.14290000
S      -46.46030000     -29.91970000     -71.36230000
S      -48.31110000     -32.00050000     -72.82930000
H      -48.91500000     -34.34790000     -72.54180000
