40
Properties=species:S:1:pos:R:3 #=T CELL(abcABC):=T 1.889726e+02=T 90.00000=T Traj:=T positionsangstrom=T Step:=T 0=T Bead:=T pbc="F F F"
C      -43.27250000     -36.19290000     -72.93030000
C      -44.41130000     -35.36970000     -72.74220000
C      -44.13890000     -34.10460000     -72.20440000
C      -42.82130000     -33.70550000     -71.86080000
C      -41.74270000     -34.60610000     -72.05950000
C      -42.01580000     -35.94430000     -72.43690000
H      -43.42500000     -37.15850000     -73.42880000
H      -44.99600000     -33.44210000     -72.11790000
H      -40.74110000     -34.23590000     -71.92380000
H      -41.38010000     -36.85610000     -72.42050000
C      -42.56110000     -32.31030000     -71.21070000
H      -43.33390000     -31.60450000     -71.55340000
H      -41.55820000     -31.93670000     -71.57730000
C      -45.78060000     -35.86000000     -73.03680000
H      -46.38720000     -34.97490000     -73.35870000
H      -45.81480000     -36.52490000     -73.88720000
S      -42.36180000     -32.50390000     -69.41730000
S      -46.55210000     -36.79770000     -71.63610000
C      -43.97130000     -33.22400000     -68.81850000
H      -44.16670000     -34.11460000     -69.38280000
H      -43.79590000     -33.43740000     -67.78760000
C      -46.48950000     -35.64980000     -70.16190000
H      -45.43800000     -35.38700000     -70.08070000
H      -46.61880000     -36.35080000     -69.37740000
C      -47.54770000     -34.61100000     -70.00030000
H      -48.47930000     -35.07290000     -69.89760000
H      -47.32990000     -34.15560000     -68.97810000
C      -45.13900000     -32.19000000     -68.63940000
H      -44.90110000     -31.34400000     -67.95390000
H      -45.85190000     -32.77370000     -68.07300000
C      -45.81110000     -31.63860000     -69.91800000
C      -45.38800000     -30.36270000     -70.30920000
C      -46.78440000     -32.17270000     -70.77570000
H      -44.56820000     -29.76900000     -69.90620000
C      -47.10850000     -31.29160000     -71.88540000
C      -47.44090000     -33.49250000     -71.04740000
C      -48.19590000     -33.47210000     -72.19100000
S      -46.18590000     -29.84400000     -71.80070000
S      -48.21520000     -31.98990000     -73.06390000
H      -48.85350000     -34.30660000     -72.44260000
