40
Properties=species:S:1:pos:R:3 #=T CELL(abcABC):=T 1.889726e+02=T 90.00000=T Traj:=T positionsangstrom=T Step:=T 0=T Bead:=T pbc="F F F"
C      -43.12590000     -36.18620000     -73.08650000
C      -44.28800000     -35.45270000     -72.74400000
C      -44.08750000     -34.21680000     -72.12710000
C      -42.86130000     -33.68530000     -71.83920000
C      -41.74800000     -34.41540000     -72.21550000
C      -41.86990000     -35.63000000     -72.78670000
H      -43.20440000     -37.15680000     -73.53970000
H      -44.93490000     -33.72190000     -71.83970000
H      -40.77490000     -34.09960000     -71.89980000
H      -41.03190000     -36.12750000     -73.25000000
C      -42.76890000     -32.33450000     -71.18570000
H      -43.73830000     -31.92240000     -71.36910000
H      -41.94680000     -31.67180000     -71.47980000
C      -45.67150000     -35.87000000     -73.05610000
H      -46.16890000     -34.97090000     -73.44070000
H      -45.64230000     -36.62170000     -73.89580000
S      -42.50670000     -32.45900000     -69.32580000
S      -46.81440000     -36.65330000     -71.75220000
C      -44.07220000     -33.29750000     -68.79710000
H      -44.43600000     -33.97940000     -69.60590000
H      -43.81070000     -33.92050000     -67.90260000
C      -46.42240000     -35.72020000     -70.25450000
H      -45.34460000     -35.20660000     -70.30050000
H      -46.42880000     -36.39340000     -69.42930000
C      -47.48170000     -34.62290000     -69.94530000
H      -48.46660000     -35.08760000     -69.94280000
H      -47.16240000     -34.27310000     -68.94750000
C      -45.23190000     -32.27910000     -68.58760000
H      -44.88600000     -31.57350000     -67.78730000
H      -46.14110000     -32.79500000     -68.22580000
C      -45.74290000     -31.61830000     -69.81530000
C      -45.39850000     -30.36860000     -70.24420000
C      -46.67360000     -32.24200000     -70.77450000
H      -44.70370000     -29.64400000     -69.73050000
C      -46.86640000     -31.42590000     -71.90540000
C      -47.52870000     -33.45340000     -70.88180000
C      -48.34280000     -33.44590000     -71.93910000
S      -46.17730000     -29.88800000     -71.77290000
S      -47.97620000     -32.11080000     -73.06450000
H      -48.96650000     -34.26650000     -72.15510000
