40
Properties=species:S:1:pos:R:3 #=T CELL(abcABC):=T 1.889726e+02=T 90.00000=T Traj:=T positionsangstrom=T Step:=T 0=T Bead:=T pbc="F F F"
C      -45.36460000     -34.09890000     -75.61620000
C      -45.45200000     -32.97110000     -74.77200000
C      -46.58050000     -32.70330000     -74.02560000
C      -47.72190000     -33.49580000     -74.06350000
C      -47.68640000     -34.58110000     -75.01440000
C      -46.49920000     -34.88480000     -75.76600000
H      -44.41770000     -34.25800000     -76.16330000
H      -46.59740000     -31.72240000     -73.49780000
H      -48.53300000     -35.31910000     -75.05390000
H      -46.48990000     -35.78580000     -76.43070000
C      -48.94140000     -33.25660000     -73.25670000
H      -49.52970000     -34.10900000     -72.95230000
H      -49.57590000     -32.63030000     -73.80440000
C      -44.30690000     -31.86780000     -74.63980000
H      -44.11760000     -31.43100000     -75.63150000
H      -44.67020000     -31.07770000     -74.00750000
S      -48.83290000     -32.17700000     -71.75670000
S      -42.73130000     -32.50890000     -74.05840000
C      -48.00950000     -33.22150000     -70.50770000
H      -48.58070000     -32.98590000     -69.61690000
H      -48.29310000     -34.21900000     -70.90240000
C      -43.20500000     -33.33660000     -72.45310000
H      -42.61180000     -34.22420000     -72.42200000
H      -44.22580000     -33.76910000     -72.56750000
C      -43.25530000     -32.46890000     -71.22940000
H      -42.30610000     -31.85040000     -71.11570000
H      -43.98940000     -31.68380000     -71.24760000
C      -46.51690000     -32.92400000     -70.39850000
H      -46.33670000     -31.81260000     -70.38630000
H      -46.09570000     -33.27850000     -71.39980000
C      -45.89170000     -33.53930000     -69.22670000
C      -46.54280000     -34.07280000     -68.15760000
C      -44.47850000     -33.45320000     -69.01530000
H      -47.61930000     -34.27530000     -67.95060000
C      -44.09450000     -34.00810000     -67.77880000
C      -43.29870000     -33.19850000     -69.84200000
C      -42.10250000     -33.48170000     -69.19210000
S      -45.40510000     -34.59730000     -66.83900000
S      -42.30090000     -34.07630000     -67.53080000
H      -41.18060000     -33.48280000     -69.73210000
