40
Properties=species:S:1:pos:R:3 #=T CELL(abcABC):=T 1.889726e+02=T 90.00000=T Traj:=T positionsangstrom=T Step:=T 0=T Bead:=T pbc="F F F"
C      -43.01580000     -36.21800000     -72.74120000
C      -43.85930000     -35.07480000     -72.93240000
C      -43.58720000     -33.86640000     -72.23360000
C      -42.39870000     -33.73230000     -71.46300000
C      -41.51150000     -34.80100000     -71.39060000
C      -41.83890000     -36.07830000     -71.93930000
H      -43.27590000     -37.24690000     -73.07530000
H      -44.26160000     -32.99300000     -72.33300000
H      -40.51780000     -34.78200000     -70.79010000
H      -41.04080000     -36.92110000     -71.84550000
C      -41.93350000     -32.40940000     -70.87860000
H      -42.14970000     -31.63790000     -71.62670000
H      -40.85840000     -32.46070000     -70.62700000
C      -45.10510000     -35.20660000     -73.75970000
H      -45.37160000     -34.22010000     -74.04100000
H      -44.94030000     -35.82650000     -74.68420000
S      -42.87990000     -31.82620000     -69.37210000
S      -46.55290000     -36.12030000     -73.01360000
C      -43.90650000     -33.26150000     -68.95120000
H      -44.01450000     -33.98800000     -69.81400000
H      -43.34790000     -33.64810000     -68.06420000
C      -46.19900000     -36.06430000     -71.21160000
H      -45.17150000     -35.75380000     -70.97790000
H      -46.23860000     -37.15950000     -70.83540000
C      -47.22950000     -35.24390000     -70.49460000
H      -48.15750000     -35.80940000     -70.69900000
H      -46.98480000     -35.35520000     -69.42280000
C      -45.38100000     -32.89740000     -68.56590000
H      -45.31960000     -32.45560000     -67.50290000
H      -45.91950000     -33.80860000     -68.43150000
C      -46.08210000     -32.03640000     -69.58790000
C      -45.79610000     -30.65120000     -69.72800000
C      -46.92920000     -32.51660000     -70.60120000
H      -45.08110000     -30.21250000     -69.10960000
C      -47.44880000     -31.46250000     -71.41590000
C      -47.45270000     -33.82220000     -71.03000000
C      -48.31410000     -33.65590000     -72.12980000
S      -46.65520000     -29.93220000     -71.15500000
S      -48.41010000     -32.03710000     -72.74330000
H      -48.70530000     -34.60460000     -72.61310000
