40
Properties=species:S:1:pos:R:3 #=T CELL(abcABC):=T 1.889726e+02=T 90.00000=T Traj:=T positionsangstrom=T Step:=T 0=T Bead:=T pbc="F F F"
C      -42.20280000     -35.80780000     -73.33090000
C      -43.23160000     -34.89480000     -73.20630000
C      -43.08820000     -33.94350000     -72.19760000
C      -42.10340000     -33.98610000     -71.25220000
C      -41.07540000     -34.93140000     -71.35220000
C      -41.12890000     -35.85730000     -72.39130000
H      -42.25070000     -36.53510000     -74.09800000
H      -43.82680000     -33.13640000     -72.07650000
H      -40.23580000     -35.00150000     -70.63750000
H      -40.26640000     -36.38020000     -72.64170000
C      -41.90790000     -32.89170000     -70.16380000
H      -41.53500000     -31.96480000     -70.55700000
H      -41.31960000     -33.29760000     -69.37170000
C      -44.45550000     -34.92110000     -74.10010000
H      -44.86920000     -33.83370000     -74.37250000
H      -44.18660000     -35.31630000     -75.06840000
S      -43.51050000     -32.20130000     -69.44840000
S      -45.79470000     -35.98880000     -73.39500000
C      -44.43700000     -33.73750000     -68.91310000
H      -44.36200000     -34.46530000     -69.75240000
H      -44.01780000     -34.28770000     -68.04100000
C      -45.96890000     -35.69990000     -71.56780000
H      -45.18970000     -35.01520000     -71.26340000
H      -45.68020000     -36.55200000     -71.03510000
C      -47.30340000     -35.17330000     -70.98630000
H      -48.12100000     -35.72950000     -71.33580000
H      -47.29910000     -35.18120000     -69.90050000
C      -45.80490000     -33.29910000     -68.49210000
H      -45.76770000     -32.96460000     -67.54410000
H      -46.37710000     -34.29710000     -68.58410000
C      -46.54570000     -32.24190000     -69.36610000
C      -46.58790000     -30.91380000     -69.05740000
C      -47.16140000     -32.58020000     -70.65290000
H      -46.06390000     -30.42070000     -68.25050000
C      -47.51430000     -31.39950000     -71.24570000
C      -47.65210000     -33.75910000     -71.41610000
C      -48.37000000     -33.35580000     -72.52520000
S      -47.33990000     -29.98470000     -70.26000000
S      -48.43280000     -31.60790000     -72.70440000
H      -48.82170000     -34.03140000     -73.25580000
