40
Properties=species:S:1:pos:R:3 #=T CELL(abcABC):=T 1.889726e+02=T 90.00000=T Traj:=T positionsangstrom=T Step:=T 0=T Bead:=T pbc="F F F"
C      -45.42300000     -34.01510000     -75.52540000
C      -45.51620000     -32.85040000     -74.76130000
C      -46.66090000     -32.59230000     -73.97920000
C      -47.71650000     -33.48950000     -73.96900000
C      -47.64530000     -34.64690000     -74.79060000
C      -46.48080000     -34.86220000     -75.60900000
H      -44.50390000     -34.24280000     -76.13870000
H      -46.52640000     -31.77430000     -73.35310000
H      -48.46760000     -35.31700000     -74.88110000
H      -46.50160000     -35.75370000     -76.27070000
C      -48.97910000     -33.33010000     -73.22580000
H      -49.12900000     -34.31560000     -72.74360000
H      -49.84260000     -33.15810000     -73.89240000
C      -44.31310000     -31.88030000     -74.74850000
H      -43.98400000     -31.49830000     -75.70050000
H      -44.55520000     -30.97030000     -74.15860000
S      -48.85390000     -32.08150000     -71.82500000
S      -42.73110000     -32.55810000     -73.97630000
C      -48.09940000     -32.98670000     -70.43980000
H      -48.25550000     -32.34740000     -69.55340000
H      -48.44740000     -34.03130000     -70.28070000
C      -43.15810000     -33.50620000     -72.46480000
H      -42.29920000     -34.15400000     -72.14410000
H      -44.00670000     -34.16900000     -72.59560000
C      -43.31080000     -32.52270000     -71.20490000
H      -42.46430000     -31.84330000     -71.24140000
H      -44.18530000     -31.94020000     -71.39550000
C      -46.55410000     -33.02540000     -70.56000000
H      -46.20150000     -31.98630000     -70.78190000
H      -46.16580000     -33.58630000     -71.37150000
C      -45.88770000     -33.55470000     -69.30560000
C      -46.50050000     -33.97070000     -68.14950000
C      -44.45100000     -33.66940000     -69.11480000
H      -47.53310000     -34.31410000     -67.95420000
C      -44.04040000     -34.20050000     -67.86410000
C      -43.28050000     -33.22240000     -69.85560000
C      -42.07740000     -33.40780000     -69.19120000
S      -45.38120000     -34.49270000     -66.87540000
S      -42.27980000     -34.14350000     -67.61020000
H      -41.12630000     -33.16190000     -69.51750000
