40
Properties=species:S:1:pos:R:3 #=T CELL(abcABC):=T 1.889726e+02=T 90.00000=T Traj:=T positionsangstrom=T Step:=T 0=T Bead:=T pbc="F F F"
C      -42.41470000     -36.11160000     -73.11210000
C      -43.37610000     -35.08180000     -73.06110000
C      -43.12740000     -33.97090000     -72.13740000
C      -41.94620000     -33.95850000     -71.38730000
C      -41.05240000     -34.97520000     -71.42620000
C      -41.20770000     -36.01670000     -72.34530000
H      -42.48920000     -36.86030000     -73.94690000
H      -43.80920000     -33.12360000     -72.07100000
H      -40.11230000     -34.84930000     -70.87500000
H      -40.48630000     -36.87490000     -72.30470000
C      -41.74300000     -32.82080000     -70.40240000
H      -41.35990000     -31.95340000     -70.97330000
H      -41.04650000     -33.03480000     -69.63070000
C      -44.59340000     -34.98640000     -73.92750000
H      -44.97560000     -34.02040000     -73.91910000
H      -44.49040000     -35.25060000     -75.03760000
S      -43.23750000     -32.19420000     -69.54910000
S      -46.02460000     -36.10310000     -73.51480000
C      -44.24490000     -33.58050000     -69.04050000
H      -44.28150000     -34.28330000     -69.90680000
H      -43.64800000     -34.18090000     -68.29710000
C      -46.08750000     -35.97520000     -71.69730000
H      -45.13000000     -35.74200000     -71.30140000
H      -46.45450000     -36.95520000     -71.35730000
C      -47.21330000     -35.11480000     -71.10380000
H      -48.17690000     -35.59470000     -71.31430000
H      -47.10850000     -35.30880000     -70.06400000
C      -45.65510000     -33.17060000     -68.56870000
H      -45.68070000     -32.74290000     -67.46230000
H      -46.25130000     -34.02500000     -68.36440000
C      -46.36790000     -32.12200000     -69.37480000
C      -46.49270000     -30.83440000     -69.01900000
C      -47.00800000     -32.44950000     -70.65560000
H      -46.17250000     -30.36610000     -68.06740000
C      -47.66590000     -31.25910000     -71.17880000
C      -47.46580000     -33.64210000     -71.36970000
C      -48.33580000     -33.37000000     -72.41120000
S      -47.41330000     -29.85040000     -70.13600000
S      -48.59740000     -31.59620000     -72.59750000
H      -48.76900000     -33.92100000     -73.20360000
