40
Properties=species:S:1:pos:R:3 #=T CELL(abcABC):=T 1.889726e+02=T 90.00000=T Traj:=T positionsangstrom=T Step:=T 0=T Bead:=T pbc="F F F"
C      -45.32650000     -33.93350000     -75.43800000
C      -45.45600000     -32.81800000     -74.64370000
C      -46.63460000     -32.67300000     -73.86260000
C      -47.71890000     -33.56650000     -73.92510000
C      -47.54470000     -34.71420000     -74.77490000
C      -46.36650000     -34.87590000     -75.50720000
H      -44.36000000     -34.10900000     -75.93070000
H      -46.74950000     -31.78260000     -73.20730000
H      -48.29090000     -35.47540000     -74.84780000
H      -46.16800000     -35.82040000     -76.08590000
C      -48.97750000     -33.29490000     -73.12380000
H      -49.37770000     -34.24830000     -72.80930000
H      -49.83770000     -32.86370000     -73.77670000
C      -44.32660000     -31.79860000     -74.44500000
H      -44.21720000     -31.16090000     -75.31390000
H      -44.60530000     -31.20670000     -73.52530000
S      -48.89400000     -32.03680000     -71.83480000
S      -42.71970000     -32.67360000     -74.08660000
C      -48.07300000     -32.71040000     -70.32260000
H      -48.21260000     -31.95490000     -69.52270000
H      -48.72350000     -33.49460000     -69.92090000
C      -43.18430000     -33.52990000     -72.44060000
H      -42.38160000     -34.32720000     -72.36140000
H      -44.16910000     -33.86490000     -72.74890000
C      -43.26700000     -32.47870000     -71.28580000
H      -42.46240000     -31.74230000     -71.32510000
H      -44.22100000     -31.93860000     -71.32450000
C      -46.62940000     -33.18000000     -70.59290000
H      -46.04190000     -32.42920000     -71.16400000
H      -46.60760000     -34.08780000     -71.19780000
C      -45.89570000     -33.56270000     -69.34620000
C      -46.49170000     -33.94400000     -68.19050000
C      -44.46570000     -33.57660000     -69.14820000
H      -47.54860000     -34.04850000     -68.09170000
C      -44.06360000     -34.11100000     -67.91480000
C      -43.29130000     -33.19050000     -69.94630000
C      -42.08990000     -33.52020000     -69.32140000
S      -45.39310000     -34.44400000     -66.88230000
S      -42.32000000     -34.23990000     -67.72180000
H      -41.12860000     -33.27720000     -69.54290000
