40
Properties=species:S:1:pos:R:3 #=T CELL(abcABC):=T 1.889726e+02=T 90.00000=T Traj:=T positionsangstrom=T Step:=T 0=T Bead:=T pbc="F F F"
C      -44.45630000     -36.66450000     -71.82720000
C      -45.50250000     -36.28170000     -72.71600000
C      -45.26350000     -35.39130000     -73.82320000
C      -43.97480000     -34.88080000     -73.91710000
C      -42.92280000     -35.22970000     -72.99190000
C      -43.17780000     -36.08820000     -71.94880000
H      -44.64530000     -37.43940000     -71.02560000
H      -46.05270000     -35.01240000     -74.40700000
H      -41.96630000     -34.82230000     -73.15620000
H      -42.48800000     -36.39160000     -71.18700000
C      -43.86920000     -33.90940000     -75.15310000
H      -44.68440000     -34.11070000     -75.78490000
H      -42.92640000     -34.06520000     -75.67010000
C      -46.89240000     -36.90640000     -72.55470000
H      -47.05210000     -37.39440000     -73.50020000
H      -47.04110000     -37.68910000     -71.77490000
S      -43.75200000     -32.07490000     -74.66820000
S      -48.20060000     -35.65540000     -72.41530000
C      -44.66540000     -31.99940000     -73.01710000
H      -44.88070000     -30.93410000     -72.93280000
H      -45.65200000     -32.54170000     -73.10290000
C      -47.89220000     -34.78460000     -70.78400000
H      -48.09110000     -35.43750000     -69.92380000
H      -48.68450000     -34.10140000     -70.67240000
C      -46.52610000     -34.12860000     -70.81200000
H      -45.71260000     -34.81570000     -70.59020000
H      -46.34420000     -33.69880000     -71.77780000
C      -43.82690000     -32.33810000     -71.78380000
H      -42.80980000     -31.89310000     -71.92270000
H      -43.81900000     -33.45270000     -71.61800000
C      -44.25510000     -31.63350000     -70.48170000
C      -43.46140000     -30.71100000     -69.87370000
C      -45.32680000     -32.06280000     -69.61620000
H      -42.48190000     -30.42910000     -70.33160000
C      -45.37230000     -31.34320000     -68.42360000
C      -46.46820000     -32.96950000     -69.73110000
C      -47.35490000     -32.80880000     -68.70210000
S      -44.10760000     -30.19970000     -68.29510000
S      -46.84710000     -31.60280000     -67.56850000
H      -48.27440000     -33.33850000     -68.63430000
