40
Properties=species:S:1:pos:R:3 #=T CELL(abcABC):=T 1.889726e+02=T 90.00000=T Traj:=T positionsangstrom=T Step:=T 0=T Bead:=T pbc="F F F"
C      -42.24010000     -34.21010000     -69.86350000
C      -42.11450000     -33.11040000     -70.72010000
C      -42.12960000     -33.25570000     -72.11130000
C      -42.33700000     -34.51140000     -72.71160000
C      -42.45580000     -35.63050000     -71.86270000
C      -42.26740000     -35.49620000     -70.45290000
H      -42.08660000     -34.11350000     -68.72610000
H      -42.12480000     -32.31950000     -72.73180000
H      -42.52030000     -36.63490000     -72.30820000
H      -42.10480000     -36.39050000     -69.81000000
C      -42.43980000     -34.74300000     -74.25200000
H      -42.61830000     -35.85520000     -74.38590000
H      -41.51010000     -34.47290000     -74.78750000
C      -41.93350000     -31.70080000     -70.18010000
H      -41.04290000     -31.68490000     -69.53690000
H      -41.93680000     -30.83990000     -70.85510000
S      -43.79400000     -33.63070000     -74.97510000
S      -43.18400000     -31.25470000     -68.83860000
C      -45.21470000     -34.31300000     -73.95990000
H      -45.88170000     -34.81750000     -74.64680000
H      -44.81980000     -35.14190000     -73.32210000
C      -44.73720000     -32.12480000     -69.39630000
H      -45.10870000     -32.59530000     -68.56930000
H      -44.51580000     -32.97290000     -70.02810000
C      -45.79710000     -31.24720000     -70.08350000
H      -45.95640000     -30.35140000     -69.60020000
H      -45.38820000     -31.04230000     -71.06450000
C      -45.91440000     -33.14360000     -73.09530000
H      -46.24080000     -32.29420000     -73.83390000
H      -45.20370000     -32.73400000     -72.36470000
C      -47.19110000     -33.53700000     -72.34640000
C      -47.99310000     -34.51850000     -72.85690000
C      -47.59570000     -32.93020000     -71.10910000
H      -47.79220000     -35.06840000     -73.71880000
C      -48.69970000     -33.58880000     -70.63730000
C      -47.10150000     -32.08270000     -70.06560000
C      -47.77860000     -32.15010000     -68.86510000
S      -49.26260000     -34.90990000     -71.70320000
S      -49.24140000     -33.19830000     -69.07700000
H      -47.61230000     -31.53710000     -68.08550000
