40
Properties=species:S:1:pos:R:3 #=T CELL(abcABC):=T 1.889726e+02=T 90.00000=T Traj:=T positionsangstrom=T Step:=T 0=T Bead:=T pbc="F F F"
C      -44.82740000     -36.76940000     -71.58480000
C      -45.77320000     -36.44100000     -72.57170000
C      -45.38480000     -35.65240000     -73.66810000
C      -44.10640000     -35.11680000     -73.85550000
C      -43.10010000     -35.55100000     -72.95200000
C      -43.49370000     -36.31630000     -71.86430000
H      -45.08760000     -37.41130000     -70.75540000
H      -46.13720000     -35.43020000     -74.29810000
H      -42.12890000     -35.23630000     -73.17060000
H      -42.77720000     -36.57890000     -71.11360000
C      -43.84260000     -34.22520000     -75.08640000
H      -44.75670000     -34.30540000     -75.66080000
H      -43.00010000     -34.54700000     -75.74230000
C      -47.24620000     -36.84140000     -72.54820000
H      -47.59850000     -37.16360000     -73.50330000
H      -47.43620000     -37.63740000     -71.78430000
S      -43.41870000     -32.55130000     -74.66490000
S      -48.47630000     -35.40700000     -72.27010000
C      -44.43200000     -32.19790000     -73.19270000
H      -44.82660000     -31.21260000     -73.32440000
H      -45.25650000     -32.86680000     -73.18320000
C      -47.71500000     -34.69770000     -70.68190000
H      -47.09160000     -35.56690000     -70.28640000
H      -48.56800000     -34.44280000     -70.08570000
C      -46.87860000     -33.50020000     -71.00580000
H      -45.98020000     -33.95000000     -71.53960000
H      -47.38340000     -32.89870000     -71.76820000
C      -43.71460000     -32.37840000     -71.80880000
H      -42.68180000     -32.08120000     -71.88620000
H      -43.73680000     -33.46280000     -71.60940000
C      -44.22770000     -31.61230000     -70.62650000
C      -43.40820000     -30.60190000     -70.06410000
C      -45.35430000     -31.83400000     -69.79330000
H      -42.51800000     -30.32120000     -70.54610000
C      -45.31740000     -31.04610000     -68.61450000
C      -46.51200000     -32.68240000     -69.80730000
C      -47.14050000     -32.62890000     -68.58690000
S      -43.94420000     -30.05270000     -68.45700000
S      -46.54810000     -31.51590000     -67.47400000
H      -48.09120000     -33.09950000     -68.48810000
