40
Properties=species:S:1:pos:R:3 #=T CELL(abcABC):=T 1.889726e+02=T 90.00000=T Traj:=T positionsangstrom=T Step:=T 0=T Bead:=T pbc="F F F"
C      -44.84460000     -36.85170000     -71.73490000
C      -45.78850000     -36.38180000     -72.69140000
C      -45.45380000     -35.42070000     -73.65520000
C      -44.07540000     -34.97420000     -73.72650000
C      -43.13810000     -35.43050000     -72.81300000
C      -43.53910000     -36.35010000     -71.79830000
H      -45.15100000     -37.53880000     -71.03660000
H      -46.20860000     -35.07570000     -74.35210000
H      -42.08760000     -35.18410000     -72.86270000
H      -42.82140000     -36.63290000     -70.99950000
C      -43.57670000     -34.15410000     -74.95600000
H      -44.21280000     -34.33900000     -75.84000000
H      -42.56620000     -34.46010000     -75.25510000
C      -47.14740000     -36.90650000     -72.41280000
H      -47.48900000     -37.64970000     -73.15740000
H      -47.15200000     -37.46340000     -71.44780000
S      -43.54710000     -32.37920000     -74.65160000
S      -48.46020000     -35.62560000     -72.29470000
C      -44.45420000     -31.85590000     -73.11930000
H      -44.53730000     -30.76120000     -73.23850000
H      -45.50990000     -32.19520000     -73.11050000
C      -47.92470000     -34.66640000     -70.84890000
H      -47.65730000     -35.41470000     -70.01620000
H      -48.72330000     -34.07940000     -70.46170000
C      -46.75100000     -33.72240000     -71.05370000
H      -45.89030000     -34.22960000     -71.35380000
H      -47.01680000     -33.05370000     -71.91240000
C      -43.60310000     -32.20560000     -71.91300000
H      -42.59130000     -31.72550000     -72.03470000
H      -43.41110000     -33.25250000     -71.89280000
C      -44.16210000     -31.58690000     -70.61160000
C      -43.36190000     -30.58770000     -69.99930000
C      -45.25090000     -31.95340000     -69.77230000
H      -42.57480000     -30.09170000     -70.42480000
C      -45.23920000     -31.23860000     -68.54910000
C      -46.39190000     -32.84330000     -69.84000000
C      -47.20300000     -32.76280000     -68.73780000
S      -44.00360000     -30.07640000     -68.44010000
S      -46.62940000     -31.58080000     -67.53780000
H      -48.19480000     -33.15750000     -68.44140000
