40
Properties=species:S:1:pos:R:3 #=T CELL(abcABC):=T 1.889726e+02=T 90.00000=T Traj:=T positionsangstrom=T Step:=T 0=T Bead:=T pbc="F F F"
C      -44.58980000     -36.79430000     -71.73130000
C      -45.61380000     -36.42670000     -72.62150000
C      -45.39350000     -35.53100000     -73.70520000
C      -44.11580000     -34.98690000     -73.81340000
C      -43.08710000     -35.23660000     -72.86340000
C      -43.35020000     -36.11780000     -71.83960000
H      -44.75910000     -37.64110000     -70.96030000
H      -46.18670000     -35.44740000     -74.49310000
H      -42.05900000     -34.78430000     -72.85550000
H      -42.68010000     -36.26700000     -71.01450000
C      -43.73160000     -34.00340000     -74.87480000
H      -44.36180000     -34.11660000     -75.76930000
H      -42.69170000     -34.25890000     -75.25620000
C      -47.00470000     -36.96200000     -72.47670000
H      -47.26960000     -37.68990000     -73.23020000
H      -47.13640000     -37.52800000     -71.50620000
S      -43.77260000     -32.13810000     -74.63750000
S      -48.28100000     -35.57740000     -72.57060000
C      -44.50380000     -31.62780000     -72.98280000
H      -44.72700000     -30.52220000     -72.98980000
H      -45.46420000     -32.09730000     -73.00010000
C      -47.88560000     -34.70560000     -70.97760000
H      -47.75490000     -35.43060000     -70.20530000
H      -48.68920000     -33.89640000     -70.85250000
C      -46.54940000     -33.95550000     -70.99340000
H      -45.81350000     -34.82010000     -70.99790000
H      -46.45100000     -33.35850000     -71.91880000
C      -43.63660000     -32.10020000     -71.84830000
H      -42.63280000     -31.81300000     -72.02870000
H      -43.65090000     -33.19800000     -71.79170000
C      -44.14050000     -31.65730000     -70.52010000
C      -43.40350000     -30.73040000     -69.86200000
C      -45.32830000     -32.04060000     -69.74150000
H      -42.52070000     -30.25650000     -70.23190000
C      -45.36840000     -31.29370000     -68.55680000
C      -46.39700000     -33.03470000     -69.78700000
C      -47.23320000     -32.90820000     -68.70230000
S      -44.02920000     -30.21510000     -68.30400000
S      -46.79700000     -31.64050000     -67.54990000
H      -48.15110000     -33.44760000     -68.35400000
