40
Properties=species:S:1:pos:R:3 #=T CELL(abcABC):=T 1.889726e+02=T 90.00000=T Traj:=T positionsangstrom=T Step:=T 0=T Bead:=T pbc="F F F"
C      -45.32480000     -33.92550000     -75.32240000
C      -45.43190000     -32.77040000     -74.58970000
C      -46.60490000     -32.55030000     -73.83920000
C      -47.63370000     -33.53550000     -73.79860000
C      -47.54740000     -34.62740000     -74.64110000
C      -46.40150000     -34.87520000     -75.30450000
H      -44.44800000     -34.16900000     -75.85170000
H      -46.77180000     -31.68450000     -73.21690000
H      -48.41510000     -35.37540000     -74.68280000
H      -46.34970000     -35.81400000     -75.83110000
C      -48.92840000     -33.44400000     -72.94200000
H      -49.11340000     -34.35000000     -72.33940000
H      -49.71810000     -33.31720000     -73.63350000
C      -44.26260000     -31.86340000     -74.53000000
H      -44.08850000     -31.37170000     -75.55330000
H      -44.43300000     -31.03710000     -73.89050000
S      -48.92940000     -31.91420000     -71.81000000
S      -42.70610000     -32.75470000     -74.12610000
C      -48.12230000     -32.70890000     -70.33800000
H      -48.13710000     -31.98980000     -69.53590000
H      -48.74930000     -33.56890000     -70.04950000
C      -43.16150000     -33.61870000     -72.57830000
H      -42.37910000     -34.25800000     -72.27900000
H      -43.99460000     -34.30840000     -72.67650000
C      -43.31430000     -32.62520000     -71.38180000
H      -42.36820000     -32.05730000     -71.39630000
H      -44.12230000     -31.88640000     -71.57830000
C      -46.58820000     -33.10150000     -70.54120000
H      -46.08640000     -32.25490000     -70.99000000
H      -46.53960000     -33.97950000     -71.24070000
C      -45.89320000     -33.49080000     -69.30960000
C      -46.51700000     -34.00530000     -68.19240000
C      -44.46420000     -33.49660000     -69.13720000
H      -47.56550000     -33.96070000     -68.00740000
C      -44.05840000     -34.02320000     -67.92160000
C      -43.33980000     -33.22420000     -70.01510000
C      -42.13100000     -33.58850000     -69.46700000
S      -45.44750000     -34.50370000     -66.95020000
S      -42.29410000     -34.19030000     -67.78350000
H      -41.15200000     -33.49350000     -69.87900000
