40
Properties=species:S:1:pos:R:3 #=T CELL(abcABC):=T 1.889726e+02=T 90.00000=T Traj:=T positionsangstrom=T Step:=T 0=T Bead:=T pbc="F F F"
C      -45.08880000     -37.40870000     -72.17750000
C      -46.13390000     -36.50200000     -72.44810000
C      -45.97910000     -35.57330000     -73.46110000
C      -44.72670000     -35.29960000     -74.04860000
C      -43.61360000     -36.00990000     -73.59010000
C      -43.80190000     -37.04080000     -72.64400000
H      -45.10740000     -38.10860000     -71.35880000
H      -46.84130000     -35.00960000     -73.77530000
H      -42.63520000     -35.64370000     -73.88940000
H      -42.93420000     -37.58630000     -72.33980000
C      -44.63740000     -34.22080000     -75.10020000
H      -45.64020000     -33.86040000     -75.37580000
H      -44.22070000     -34.61610000     -76.00850000
C      -47.43850000     -36.86390000     -71.77260000
H      -47.99800000     -37.62270000     -72.32310000
H      -47.20560000     -37.34570000     -70.85010000
S      -43.37490000     -32.92200000     -74.73630000
S      -48.56550000     -35.42210000     -71.50240000
C      -44.10510000     -32.16220000     -73.15230000
H      -43.93150000     -31.07900000     -73.28600000
H      -45.20030000     -32.27030000     -73.03150000
C      -47.82640000     -34.36420000     -70.18030000
H      -48.07730000     -34.67580000     -69.17770000
H      -48.34280000     -33.42600000     -70.38160000
C      -46.33190000     -33.99530000     -70.36490000
H      -45.69780000     -34.90050000     -70.11810000
H      -46.16650000     -33.56180000     -71.42900000
C      -43.41380000     -32.49590000     -71.82250000
H      -42.30800000     -32.36460000     -71.88290000
H      -43.64660000     -33.52010000     -71.53120000
C      -43.89280000     -31.58400000     -70.71650000
C      -43.33800000     -30.33470000     -70.48270000
C      -44.97710000     -31.91370000     -69.75760000
H      -42.55290000     -29.86740000     -71.00010000
C      -44.99490000     -30.83940000     -68.85100000
C      -45.97590000     -32.88060000     -69.42350000
C      -46.67210000     -32.51150000     -68.30730000
S      -43.94280000     -29.53030000     -69.10450000
S      -46.29640000     -30.92690000     -67.62260000
H      -47.52080000     -33.10660000     -67.95100000
