40
Properties=species:S:1:pos:R:3 #=T CELL(abcABC):=T 1.889726e+02=T 90.00000=T Traj:=T positionsangstrom=T Step:=T 0=T Bead:=T pbc="F F F"
C      -44.98440000     -36.95850000     -71.36550000
C      -46.34970000     -36.63810000     -71.60510000
C      -46.73130000     -36.02350000     -72.78420000
C      -45.75340000     -35.64620000     -73.77650000
C      -44.47820000     -36.14350000     -73.56160000
C      -44.06340000     -36.79740000     -72.41150000
H      -44.72410000     -37.57150000     -70.51720000
H      -47.76590000     -35.81180000     -73.00690000
H      -43.71250000     -36.08040000     -74.36520000
H      -43.00300000     -37.24080000     -72.40040000
C      -46.06360000     -34.82520000     -75.02470000
H      -47.13570000     -34.57360000     -75.07280000
H      -45.84680000     -35.39840000     -75.94170000
C      -47.33100000     -37.01050000     -70.48960000
H      -47.99920000     -37.78060000     -70.93950000
H      -46.88740000     -37.49850000     -69.59520000
S      -45.12300000     -33.23190000     -75.18710000
S      -48.36960000     -35.58770000     -69.89540000
C      -45.05170000     -32.46470000     -73.49090000
H      -44.92640000     -31.48340000     -73.87650000
H      -45.99350000     -32.41250000     -72.96360000
C      -47.15490000     -34.28480000     -69.10130000
H      -46.51810000     -34.80550000     -68.36710000
H      -47.86910000     -33.62850000     -68.48070000
C      -46.28300000     -33.54520000     -70.17550000
H      -45.52240000     -34.22290000     -70.68250000
H      -46.86330000     -33.25750000     -71.00630000
C      -43.98410000     -32.86300000     -72.55110000
H      -43.02880000     -33.08700000     -73.02600000
H      -44.27940000     -33.89070000     -72.21770000
C      -43.77440000     -31.80110000     -71.45970000
C      -42.70570000     -30.94230000     -71.54980000
C      -44.60130000     -31.58790000     -70.30480000
H      -42.00850000     -31.04390000     -72.41150000
C      -44.15460000     -30.45930000     -69.60360000
C      -45.68360000     -32.25600000     -69.61440000
C      -46.03570000     -31.59270000     -68.46740000
S      -42.63140000     -29.83950000     -70.16400000
S      -45.06420000     -30.10810000     -68.17890000
H      -46.83600000     -31.77710000     -67.69520000
