40
Properties=species:S:1:pos:R:3 #=T CELL(abcABC):=T 1.889726e+02=T 90.00000=T Traj:=T positionsangstrom=T Step:=T 0=T Bead:=T pbc="F F F"
C      -45.08890000     -37.49640000     -71.85940000
C      -46.34010000     -36.76080000     -71.85100000
C      -46.53720000     -35.82040000     -72.84170000
C      -45.44010000     -35.47790000     -73.72010000
C      -44.24740000     -36.17440000     -73.68720000
C      -44.11370000     -37.24020000     -72.76640000
H      -44.93640000     -38.27390000     -71.09320000
H      -47.55190000     -35.25750000     -72.93200000
H      -43.37790000     -35.91460000     -74.23620000
H      -43.20130000     -37.78610000     -72.68130000
C      -45.77590000     -34.47480000     -74.78580000
H      -46.62000000     -33.87030000     -74.45980000
H      -45.97300000     -34.93890000     -75.79880000
C      -47.41080000     -37.10200000     -70.85450000
H      -48.10780000     -37.83260000     -71.23130000
H      -46.90380000     -37.50620000     -69.99350000
S      -44.34600000     -33.37680000     -75.12410000
S      -48.50720000     -35.56450000     -70.37020000
C      -44.38110000     -32.17160000     -73.78640000
H      -43.69880000     -31.32000000     -74.09390000
H      -45.34530000     -31.69690000     -73.69860000
C      -47.40830000     -34.39530000     -69.42400000
H      -47.14600000     -34.83520000     -68.50970000
H      -48.11790000     -33.56590000     -69.18570000
C      -46.33370000     -33.62340000     -70.21930000
H      -45.49950000     -34.31100000     -70.59310000
H      -46.75840000     -33.40910000     -71.27510000
C      -43.80090000     -32.63650000     -72.33790000
H      -42.76310000     -32.91510000     -72.55930000
H      -44.23390000     -33.56280000     -71.94950000
C      -43.86520000     -31.57610000     -71.27480000
C      -42.82700000     -30.60680000     -71.14650000
C      -44.79470000     -31.50730000     -70.18070000
H      -42.01110000     -30.40310000     -71.79710000
C      -44.54210000     -30.38520000     -69.37490000
C      -45.85770000     -32.36500000     -69.57630000
C      -46.23340000     -31.91990000     -68.30640000
S      -43.10940000     -29.44740000     -69.81420000
S      -45.35090000     -30.47270000     -67.83490000
H      -46.90390000     -32.43230000     -67.63410000
