40
Properties=species:S:1:pos:R:3 #=T CELL(abcABC):=T 1.889726e+02=T 90.00000=T Traj:=T positionsangstrom=T Step:=T 0=T Bead:=T pbc="F F F"
C      -45.18860000     -37.44590000     -72.11510000
C      -46.23420000     -36.49930000     -72.18490000
C      -46.12410000     -35.45640000     -73.15210000
C      -45.02000000     -35.43430000     -74.02050000
C      -43.98790000     -36.35020000     -73.90620000
C      -44.06320000     -37.32940000     -72.88950000
H      -45.23470000     -38.24050000     -71.40290000
H      -46.87530000     -34.71370000     -73.24820000
H      -43.11860000     -36.26270000     -74.57210000
H      -43.19640000     -38.02480000     -72.85440000
C      -45.03320000     -34.45090000     -75.16980000
H      -46.05330000     -34.03310000     -75.46020000
H      -44.76550000     -34.98500000     -76.14200000
C      -47.36560000     -36.79580000     -71.21640000
H      -47.90460000     -37.66300000     -71.55820000
H      -46.99140000     -37.16020000     -70.26500000
S      -43.74510000     -33.17640000     -74.98060000
S      -48.53890000     -35.43230000     -70.81930000
C      -44.32610000     -32.05550000     -73.52200000
H      -44.09680000     -31.05360000     -73.66370000
H      -45.44700000     -32.04480000     -73.63000000
C      -47.62630000     -34.46930000     -69.50130000
H      -47.37780000     -35.14140000     -68.65780000
H      -48.27320000     -33.67860000     -69.17970000
C      -46.44100000     -33.85210000     -70.05600000
H      -45.56740000     -34.55940000     -70.09630000
H      -46.72250000     -33.45050000     -70.98720000
C      -43.96430000     -32.63610000     -72.13710000
H      -42.89720000     -32.82870000     -72.24730000
H      -44.51500000     -33.54760000     -71.79220000
C      -44.03830000     -31.59330000     -70.98860000
C      -43.32130000     -30.45450000     -71.07400000
C      -44.83070000     -31.71880000     -69.83800000
H      -42.66670000     -30.09730000     -71.85700000
C      -44.59940000     -30.68810000     -68.94020000
C      -45.88620000     -32.63560000     -69.33010000
C      -46.44250000     -32.18390000     -68.17810000
S      -43.57350000     -29.44680000     -69.58660000
S      -45.65220000     -30.67960000     -67.62590000
H      -47.23030000     -32.60520000     -67.57260000
