40
Properties=species:S:1:pos:R:3 #=T CELL(abcABC):=T 1.889726e+02=T 90.00000=T Traj:=T positionsangstrom=T Step:=T 0=T Bead:=T pbc="F F F"
C      -45.15080000     -37.47720000     -71.85080000
C      -46.31910000     -36.68940000     -71.95790000
C      -46.32500000     -35.68430000     -72.97800000
C      -45.22080000     -35.43350000     -73.82150000
C      -44.16490000     -36.39410000     -73.77620000
C      -44.14300000     -37.37460000     -72.85690000
H      -45.01870000     -38.30070000     -71.16870000
H      -47.19520000     -34.98000000     -73.10280000
H      -43.42990000     -36.33250000     -74.59290000
H      -43.35590000     -38.15060000     -72.86280000
C      -45.29270000     -34.43820000     -74.93450000
H      -46.28630000     -33.99890000     -74.80710000
H      -45.24690000     -34.84910000     -75.90790000
C      -47.45740000     -36.92140000     -71.02960000
H      -48.22320000     -37.59830000     -71.50670000
H      -47.03210000     -37.45120000     -70.15000000
S      -43.96210000     -33.12390000     -75.01410000
S      -48.48850000     -35.52890000     -70.54270000
C      -44.47140000     -32.00020000     -73.62160000
H      -44.04730000     -31.02650000     -73.77950000
H      -45.58670000     -32.02270000     -73.64260000
C      -47.42540000     -34.44070000     -69.52590000
H      -47.04220000     -35.13070000     -68.72210000
H      -48.10580000     -33.75650000     -69.04970000
C      -46.31860000     -33.72430000     -70.20100000
H      -45.49480000     -34.39680000     -70.38100000
H      -46.67210000     -33.53650000     -71.24270000
C      -43.95270000     -32.60430000     -72.27680000
H      -42.90880000     -32.89190000     -72.35440000
H      -44.53740000     -33.54590000     -72.07710000
C      -43.98210000     -31.60730000     -71.14160000
C      -43.20470000     -30.43860000     -71.21820000
C      -44.77960000     -31.64730000     -69.99510000
H      -42.35200000     -30.26880000     -71.81010000
C      -44.51660000     -30.57930000     -69.10230000
C      -45.82770000     -32.55480000     -69.45070000
C      -46.34130000     -32.07330000     -68.25680000
S      -43.29330000     -29.46640000     -69.77800000
S      -45.59240000     -30.58430000     -67.77440000
H      -47.13420000     -32.46280000     -67.62530000
