40
Properties=species:S:1:pos:R:3 #=T CELL(abcABC):=T 1.889726e+02=T 90.00000=T Traj:=T positionsangstrom=T Step:=T 0=T Bead:=T pbc="F F F"
C      -45.10470000     -37.36590000     -71.60900000
C      -46.37700000     -36.78970000     -71.67560000
C      -46.63410000     -35.80210000     -72.67710000
C      -45.68980000     -35.51830000     -73.65680000
C      -44.42180000     -36.21300000     -73.64300000
C      -44.17810000     -37.10480000     -72.58720000
H      -44.75580000     -37.97180000     -70.73510000
H      -47.63730000     -35.36330000     -72.57950000
H      -43.70610000     -36.17510000     -74.41130000
H      -43.29250000     -37.65320000     -72.62370000
C      -45.92120000     -34.41700000     -74.69890000
H      -46.78810000     -33.79100000     -74.48420000
H      -46.23110000     -34.93270000     -75.62160000
C      -47.31340000     -36.99240000     -70.53370000
H      -47.99960000     -37.85900000     -70.70150000
H      -46.79050000     -37.29440000     -69.57860000
S      -44.54450000     -33.30430000     -75.11070000
S      -48.42940000     -35.60340000     -70.23810000
C      -44.59330000     -32.16720000     -73.70520000
H      -44.26060000     -31.19420000     -74.04630000
H      -45.62890000     -32.04810000     -73.40670000
C      -47.33910000     -34.37960000     -69.36380000
H      -46.60120000     -34.84480000     -68.66060000
H      -48.04330000     -33.73330000     -68.82530000
C      -46.40560000     -33.53630000     -70.39730000
H      -45.62630000     -34.09760000     -70.77630000
H      -46.94940000     -33.03920000     -71.13710000
C      -43.74080000     -32.71190000     -72.48260000
H      -42.65360000     -32.86970000     -72.70530000
H      -44.14530000     -33.58320000     -72.01270000
C      -43.75460000     -31.66330000     -71.42720000
C      -42.92700000     -30.56010000     -71.46260000
C      -44.57870000     -31.67900000     -70.13930000
H      -42.36110000     -30.22430000     -72.30110000
C      -44.22700000     -30.60810000     -69.36830000
C      -45.70900000     -32.43410000     -69.59870000
C      -46.21370000     -31.79690000     -68.50360000
S      -42.95590000     -29.55030000     -70.00190000
S      -45.29070000     -30.43170000     -68.00100000
H      -47.08000000     -32.18770000     -68.01270000
