40
Properties=species:S:1:pos:R:3 #=T CELL(abcABC):=T 1.889726e+02=T 90.00000=T Traj:=T positionsangstrom=T Step:=T 0=T Bead:=T pbc="F F F"
C      -46.14700000     -37.16900000     -71.04890000
C      -47.21140000     -36.27020000     -70.97240000
C      -47.54780000     -35.56230000     -72.11290000
C      -46.84130000     -35.69400000     -73.28570000
C      -45.83470000     -36.63880000     -73.39450000
C      -45.48110000     -37.38280000     -72.25600000
H      -45.74060000     -37.80970000     -70.22390000
H      -48.22130000     -34.73210000     -72.08480000
H      -45.38960000     -36.76590000     -74.39040000
H      -44.68300000     -38.19010000     -72.25340000
C      -47.25350000     -34.81480000     -74.44910000
H      -48.31840000     -34.37740000     -74.27760000
H      -47.37220000     -35.49790000     -75.27070000
C      -47.84610000     -36.09500000     -69.62450000
H      -48.82590000     -36.62660000     -69.78420000
H      -47.37920000     -36.62110000     -68.81710000
S      -46.11200000     -33.38770000     -74.95570000
S      -48.32470000     -34.38130000     -69.18200000
C      -45.48020000     -32.60780000     -73.36480000
H      -45.18760000     -31.51280000     -73.49430000
H      -46.32120000     -32.71140000     -72.66440000
C      -46.67910000     -33.66390000     -68.79900000
H      -46.01440000     -34.46830000     -68.54510000
H      -46.72480000     -33.07090000     -67.91780000
C      -46.24580000     -32.86580000     -70.03320000
H      -46.02800000     -33.55000000     -70.86540000
H      -47.05370000     -32.25400000     -70.39890000
C      -44.21590000     -33.31060000     -72.85570000
H      -43.47170000     -33.77080000     -73.48550000
H      -44.52660000     -34.09490000     -72.18830000
C      -43.45160000     -32.37800000     -71.94820000
C      -42.23100000     -31.84950000     -72.30150000
C      -43.94620000     -31.82750000     -70.72630000
H      -41.68820000     -32.01250000     -73.25040000
C      -42.99360000     -30.86120000     -70.27610000
C      -45.03340000     -32.02880000     -69.79160000
C      -44.81170000     -31.30190000     -68.65470000
S      -41.62820000     -30.58590000     -71.25830000
S      -43.36330000     -30.30500000     -68.72280000
H      -45.49870000     -31.16970000     -67.78980000
