40
Properties=species:S:1:pos:R:3 #=T CELL(abcABC):=T 1.889726e+02=T 90.00000=T Traj:=T positionsangstrom=T Step:=T 0=T Bead:=T pbc="F F F"
C      -45.07070000     -37.01140000     -71.26290000
C      -46.38980000     -36.50200000     -71.32550000
C      -46.83430000     -35.81820000     -72.47500000
C      -45.98760000     -35.74150000     -73.57340000
C      -44.63240000     -36.28610000     -73.51040000
C      -44.22260000     -36.91550000     -72.39840000
H      -44.75400000     -37.61080000     -70.42400000
H      -47.85680000     -35.48060000     -72.54800000
H      -43.88190000     -35.97780000     -74.24230000
H      -43.26010000     -37.37410000     -72.35600000
C      -46.45510000     -35.05410000     -74.85180000
H      -47.58440000     -34.89800000     -74.94350000
H      -46.03380000     -35.57610000     -75.66810000
C      -47.36010000     -36.69640000     -70.17910000
H      -48.03700000     -37.56560000     -70.43760000
H      -46.84070000     -36.96240000     -69.24410000
S      -45.48220000     -33.47020000     -75.06790000
S      -48.44020000     -35.26640000     -69.86430000
C      -45.30030000     -32.44610000     -73.58530000
H      -45.14680000     -31.49290000     -74.07060000
H      -46.15200000     -32.23550000     -72.97020000
C      -47.24110000     -33.97220000     -69.26890000
H      -46.34010000     -34.44900000     -68.92920000
H      -47.53760000     -33.53170000     -68.35850000
C      -46.84050000     -32.92970000     -70.32210000
H      -46.64440000     -33.30940000     -71.28530000
H      -47.66580000     -32.17150000     -70.41090000
C      -44.10430000     -32.87300000     -72.69910000
H      -43.21260000     -33.08210000     -73.35030000
H      -44.42770000     -33.83660000     -72.24830000
C      -43.74800000     -31.89080000     -71.62540000
C      -42.53820000     -31.28470000     -71.72060000
C      -44.41700000     -31.66920000     -70.43250000
H      -41.90820000     -31.29860000     -72.57480000
C      -43.73970000     -30.71930000     -69.65560000
C      -45.68840000     -32.03950000     -69.75330000
C      -45.82480000     -31.31950000     -68.57850000
S      -42.29100000     -30.10880000     -70.41080000
S      -44.42530000     -30.28000000     -68.14540000
H      -46.69250000     -31.31300000     -67.92690000
