40
Properties=species:S:1:pos:R:3 #=T CELL(abcABC):=T 1.889726e+02=T 90.00000=T Traj:=T positionsangstrom=T Step:=T 0=T Bead:=T pbc="F F F"
C      -47.00730000     -36.57020000     -69.39730000
C      -47.05810000     -36.35970000     -70.73340000
C      -45.88230000     -36.44540000     -71.49380000
C      -44.61210000     -36.57220000     -70.87880000
C      -44.52500000     -36.69490000     -69.47400000
C      -45.72870000     -36.70280000     -68.74800000
H      -47.92770000     -36.45370000     -68.91710000
H      -45.88970000     -36.17050000     -72.50650000
H      -43.60670000     -36.76230000     -68.91740000
H      -45.47980000     -36.77620000     -67.70100000
C      -43.26210000     -36.54470000     -71.69920000
H      -42.64060000     -37.43670000     -71.64850000
H      -42.59410000     -35.73630000     -71.15080000
C      -48.34640000     -35.91150000     -71.37210000
H      -48.19420000     -35.62030000     -72.36810000
H      -49.17440000     -36.56900000     -71.36240000
S      -43.41240000     -35.97030000     -73.46110000
S      -48.94400000     -34.35660000     -70.50320000
C      -43.34910000     -34.13890000     -73.56440000
H      -42.28310000     -33.83570000     -73.39980000
H      -43.48100000     -34.13140000     -74.63440000
C      -47.73340000     -32.94770000     -70.89960000
H      -48.35770000     -32.07790000     -70.56040000
H      -47.49030000     -32.82570000     -72.03600000
C      -46.38230000     -33.05830000     -70.10550000
H      -46.56090000     -33.38730000     -69.08350000
H      -45.69970000     -33.71220000     -70.56910000
C      -44.32990000     -33.38180000     -72.67050000
H      -44.17970000     -33.79080000     -71.71040000
H      -45.31810000     -33.38270000     -72.99060000
C      -44.02370000     -31.97780000     -72.41910000
C      -43.25080000     -31.17080000     -73.21550000
C      -44.78850000     -31.28970000     -71.42370000
H      -42.65310000     -31.45560000     -74.06710000
C      -44.49720000     -29.93940000     -71.44990000
C      -45.67180000     -31.65370000     -70.26800000
C      -45.92950000     -30.52820000     -69.53700000
S      -43.30820000     -29.45260000     -72.67170000
S      -45.16570000     -28.99770000     -70.10430000
H      -46.54830000     -30.55680000     -68.66560000
