40
Properties=species:S:1:pos:R:3 #=T CELL(abcABC):=T 1.889726e+02=T 90.00000=T Traj:=T positionsangstrom=T Step:=T 0=T Bead:=T pbc="F F F"
C      -45.64900000     -36.99220000     -71.22340000
C      -46.87200000     -36.24800000     -71.03660000
C      -47.39490000     -35.63290000     -72.16260000
C      -46.73130000     -35.60520000     -73.38660000
C      -45.61930000     -36.41420000     -73.59150000
C      -45.07820000     -37.14380000     -72.51680000
H      -45.20850000     -37.50430000     -70.40130000
H      -48.19000000     -34.95180000     -71.97370000
H      -45.20180000     -36.36130000     -74.58000000
H      -44.17360000     -37.68600000     -72.73500000
C      -47.19660000     -34.75870000     -74.55900000
H      -48.05780000     -34.24720000     -74.25660000
H      -47.44830000     -35.32520000     -75.49320000
C      -47.66940000     -36.29220000     -69.77690000
H      -48.50320000     -36.96850000     -69.73780000
H      -46.92960000     -36.57690000     -69.03040000
S      -45.98580000     -33.49780000     -75.14000000
S      -48.41710000     -34.64810000     -69.17390000
C      -45.30800000     -32.49130000     -73.65120000
H      -44.87480000     -31.66630000     -74.20880000
H      -46.19390000     -32.10650000     -73.12420000
C      -47.10470000     -33.31610000     -68.78680000
H      -46.41690000     -33.53050000     -67.93110000
H      -47.73680000     -32.47150000     -68.54150000
C      -46.19560000     -33.05080000     -69.97440000
H      -45.62110000     -33.97180000     -70.06390000
H      -46.75260000     -32.75940000     -70.96310000
C      -44.33020000     -33.20540000     -72.77820000
H      -43.51430000     -33.61120000     -73.38500000
H      -44.73100000     -34.15110000     -72.32670000
C      -43.58360000     -32.27360000     -71.87820000
C      -42.38040000     -31.83400000     -72.23130000
C      -44.02970000     -31.79340000     -70.53350000
H      -41.88930000     -32.29370000     -73.06000000
C      -43.10800000     -30.93330000     -70.00710000
C      -45.14330000     -32.00500000     -69.66740000
C      -45.07020000     -31.29200000     -68.51400000
S      -41.68330000     -30.69450000     -71.08820000
S      -43.67570000     -30.26610000     -68.51510000
H      -45.76390000     -31.23610000     -67.76040000
