40
Properties=species:S:1:pos:R:3 #=T CELL(abcABC):=T 1.889726e+02=T 90.00000=T Traj:=T positionsangstrom=T Step:=T 0=T Bead:=T pbc="F F F"
C      -45.43990000     -36.92920000     -71.28450000
C      -46.65000000     -36.21190000     -71.07280000
C      -47.25630000     -35.52940000     -72.07800000
C      -46.68430000     -35.48580000     -73.35940000
C      -45.56220000     -36.26450000     -73.60570000
C      -44.91550000     -36.98450000     -72.58140000
H      -45.02210000     -37.38900000     -70.42590000
H      -48.13840000     -34.89400000     -71.89400000
H      -45.27780000     -36.41980000     -74.63060000
H      -43.95220000     -37.39720000     -72.83820000
C      -47.18220000     -34.61950000     -74.45340000
H      -48.14050000     -34.10840000     -74.04390000
H      -47.54640000     -35.24260000     -75.25310000
C      -47.18850000     -36.13180000     -69.64800000
H      -47.75510000     -37.06530000     -69.48050000
H      -46.39310000     -36.24580000     -68.82460000
S      -45.89510000     -33.53330000     -75.18550000
S      -48.44830000     -34.84890000     -69.38360000
C      -45.19920000     -32.53030000     -73.83910000
H      -44.49470000     -31.80730000     -74.24630000
H      -46.04370000     -32.06870000     -73.32840000
C      -47.28920000     -33.50340000     -68.90900000
H      -46.73150000     -33.82760000     -68.06020000
H      -47.85480000     -32.65550000     -68.58840000
C      -46.34320000     -33.06220000     -70.02110000
H      -45.91550000     -33.91380000     -70.48700000
H      -46.98600000     -32.64170000     -70.75410000
C      -44.34330000     -33.24520000     -72.75240000
H      -43.62720000     -33.87160000     -73.23090000
H      -45.07050000     -33.92700000     -72.30690000
C      -43.63680000     -32.27040000     -71.82110000
C      -42.36850000     -31.74640000     -72.06350000
C      -44.16480000     -31.77710000     -70.54740000
H      -41.73580000     -32.02380000     -72.89370000
C      -43.31720000     -30.84290000     -70.03150000
C      -45.21890000     -32.10930000     -69.66490000
C      -45.23450000     -31.38620000     -68.47290000
S      -41.82980000     -30.59880000     -70.91390000
S      -43.78250000     -30.38680000     -68.47790000
H      -45.95940000     -31.37890000     -67.72940000
