40
Properties=species:S:1:pos:R:3 #=T CELL(abcABC):=T 1.889726e+02=T 90.00000=T Traj:=T positionsangstrom=T Step:=T 0=T Bead:=T pbc="F F F"
C      -45.15530000     -37.14010000     -71.25070000
C      -46.40540000     -36.44800000     -71.19170000
C      -46.86460000     -35.84060000     -72.34380000
C      -45.99160000     -35.58660000     -73.49780000
C      -44.78680000     -36.27210000     -73.52710000
C      -44.47550000     -37.11710000     -72.44180000
H      -44.74070000     -37.72400000     -70.42730000
H      -47.84920000     -35.42110000     -72.35400000
H      -44.16110000     -36.31780000     -74.36650000
H      -43.57080000     -37.70520000     -72.39080000
C      -46.55060000     -34.73590000     -74.59490000
H      -47.47900000     -34.23790000     -74.31800000
H      -46.95630000     -35.36620000     -75.37850000
C      -47.25000000     -36.54130000     -69.96300000
H      -47.98100000     -37.30370000     -70.00900000
H      -46.70270000     -36.77450000     -69.06110000
S      -45.50450000     -33.48410000     -75.39770000
S      -48.36470000     -35.04530000     -69.67110000
C      -45.41030000     -32.38170000     -73.84830000
H      -45.02680000     -31.46770000     -74.29970000
H      -46.33970000     -32.30350000     -73.25270000
C      -47.12270000     -33.82040000     -69.18040000
H      -46.25880000     -34.47860000     -68.74150000
H      -47.59090000     -33.23560000     -68.31540000
C      -46.63850000     -32.91960000     -70.30650000
H      -46.44760000     -33.55890000     -71.11760000
H      -47.42330000     -32.28030000     -70.66150000
C      -44.36780000     -32.89360000     -72.78470000
H      -43.50910000     -33.38120000     -73.24330000
H      -44.79340000     -33.70740000     -72.19830000
C      -43.93030000     -31.83540000     -71.76160000
C      -42.73160000     -31.22590000     -71.93910000
C      -44.41380000     -31.64070000     -70.45130000
H      -42.04170000     -31.44640000     -72.73310000
C      -43.63950000     -30.82100000     -69.66530000
C      -45.66300000     -31.99830000     -69.74220000
C      -45.79720000     -31.29430000     -68.56250000
S      -42.11560000     -30.43900000     -70.43000000
S      -44.30540000     -30.40980000     -68.09150000
H      -46.66140000     -31.23480000     -67.84700000
