40
Properties=species:S:1:pos:R:3 #=T CELL(abcABC):=T 1.889726e+02=T 90.00000=T Traj:=T positionsangstrom=T Step:=T 0=T Bead:=T pbc="F F F"
C      -46.02120000     -37.17790000     -71.20570000
C      -47.06370000     -36.27000000     -71.02100000
C      -47.42670000     -35.42930000     -72.09780000
C      -46.74080000     -35.51040000     -73.29960000
C      -45.67430000     -36.44110000     -73.46140000
C      -45.29610000     -37.26950000     -72.41390000
H      -45.78340000     -37.80670000     -70.31640000
H      -48.32970000     -34.88720000     -72.14810000
H      -45.15450000     -36.39950000     -74.38330000
H      -44.63720000     -38.15630000     -72.48660000
C      -47.21700000     -34.75230000     -74.54250000
H      -48.11610000     -34.22000000     -74.32660000
H      -47.40890000     -35.32060000     -75.47010000
C      -47.68530000     -36.22620000     -69.67300000
H      -48.60680000     -36.90780000     -69.74450000
H      -47.01220000     -36.59040000     -68.93720000
S      -45.98200000     -33.43990000     -75.03140000
S      -48.44480000     -34.55760000     -69.18570000
C      -45.60960000     -32.73510000     -73.35490000
H      -45.62190000     -31.64320000     -73.43480000
H      -46.43840000     -32.98260000     -72.73040000
C      -46.90240000     -33.57770000     -68.82120000
H      -46.18930000     -34.10290000     -68.14510000
H      -47.39870000     -32.72490000     -68.30260000
C      -46.15470000     -33.02020000     -70.07820000
H      -45.63500000     -33.81090000     -70.60710000
H      -46.85210000     -32.61030000     -70.77840000
C      -44.29190000     -33.27290000     -72.75110000
H      -43.76590000     -33.55000000     -73.68770000
H      -44.48660000     -34.16910000     -72.15250000
C      -43.50120000     -32.29350000     -71.92150000
C      -42.35110000     -31.76150000     -72.34570000
C      -43.92310000     -31.82670000     -70.56740000
H      -41.91740000     -31.79010000     -73.33960000
C      -42.95520000     -30.97180000     -70.08670000
C      -45.07700000     -31.99330000     -69.75320000
C      -45.01320000     -31.18790000     -68.67670000
S      -41.60210000     -30.68350000     -71.14120000
S      -43.51140000     -30.21840000     -68.65830000
H      -45.66120000     -31.14880000     -67.85410000
