40
Properties=species:S:1:pos:R:3 #=T CELL(abcABC):=T 1.889726e+02=T 90.00000=T Traj:=T positionsangstrom=T Step:=T 0=T Bead:=T pbc="F F F"
C      -49.03670000     -34.96670000     -71.68110000
C      -47.68360000     -35.28950000     -71.45640000
C      -46.76190000     -35.27360000     -72.48920000
C      -47.24120000     -34.98280000     -73.76290000
C      -48.57730000     -34.79060000     -74.06950000
C      -49.50850000     -34.74680000     -72.99870000
H      -49.69450000     -34.92300000     -70.82830000
H      -45.71960000     -35.47930000     -72.37000000
H      -48.91530000     -34.68800000     -75.08040000
H      -50.55520000     -34.49300000     -73.16750000
C      -46.14480000     -34.88190000     -74.83110000
H      -46.52460000     -35.26880000     -75.83590000
H      -45.20430000     -35.44590000     -74.62960000
C      -47.17300000     -35.53790000     -70.07660000
H      -47.41320000     -36.52770000     -69.69730000
H      -46.08330000     -35.40990000     -70.01650000
S      -45.53680000     -33.20390000     -75.00600000
S      -47.90750000     -34.35420000     -68.85920000
C      -44.15710000     -33.27940000     -73.74460000
H      -44.44510000     -34.08490000     -72.98840000
H      -43.22670000     -33.66440000     -74.21920000
C      -47.52220000     -32.73370000     -69.56590000
H      -47.52290000     -32.03900000     -68.67990000
H      -48.34230000     -32.26730000     -70.17560000
C      -46.28860000     -32.61690000     -70.50090000
H      -46.23140000     -33.38880000     -71.25110000
H      -46.45070000     -31.71820000     -71.13490000
C      -44.00120000     -31.96690000     -73.00990000
H      -44.95480000     -31.63760000     -72.55200000
H      -43.77520000     -31.17760000     -73.74870000
C      -43.09470000     -32.06450000     -71.84050000
C      -41.73900000     -31.95430000     -71.93920000
C      -43.56270000     -32.14270000     -70.47130000
H      -41.16590000     -31.51440000     -72.75930000
C      -42.47260000     -32.06210000     -69.64080000
C      -44.86620000     -32.46680000     -69.81910000
C      -44.67000000     -32.63910000     -68.47370000
S      -40.92150000     -32.04540000     -70.38790000
S      -42.99520000     -32.42420000     -67.90190000
H      -45.42510000     -32.81210000     -67.69320000
