40
Properties=species:S:1:pos:R:3 #=T CELL(abcABC):=T 1.889726e+02=T 90.00000=T Traj:=T positionsangstrom=T Step:=T 0=T Bead:=T pbc="F F F"
C      -49.08700000     -34.64090000     -71.49550000
C      -48.00870000     -35.50970000     -71.54520000
C      -47.25460000     -35.55250000     -72.74050000
C      -47.52140000     -34.69310000     -73.85430000
C      -48.48980000     -33.72560000     -73.63800000
C      -49.32410000     -33.73730000     -72.49830000
H      -49.78880000     -34.78020000     -70.77660000
H      -46.44200000     -36.26960000     -72.91300000
H      -48.79680000     -33.09400000     -74.45910000
H      -50.17080000     -33.05370000     -72.34740000
C      -46.52820000     -34.71970000     -74.99990000
H      -47.12350000     -34.78580000     -75.89100000
H      -45.78380000     -35.54210000     -74.90440000
C      -47.73040000     -36.38200000     -70.36340000
H      -48.71010000     -36.57140000     -69.79100000
H      -47.38240000     -37.34570000     -70.68010000
S      -45.71710000     -33.03400000     -75.09670000
S      -46.37890000     -35.62290000     -69.17860000
C      -44.59520000     -32.99240000     -73.65700000
H      -44.78820000     -33.82530000     -72.96640000
H      -43.52200000     -32.95290000     -73.97300000
C      -46.98220000     -33.76910000     -69.00010000
H      -46.96730000     -33.75730000     -67.89160000
H      -48.06420000     -33.68310000     -69.31750000
C      -46.25010000     -32.73870000     -69.86200000
H      -46.42500000     -33.17610000     -70.92400000
H      -46.73180000     -31.77060000     -69.71860000
C      -44.64420000     -31.67590000     -72.80480000
H      -45.62830000     -31.53780000     -72.33070000
H      -44.40340000     -30.79260000     -73.42880000
C      -43.57460000     -31.68560000     -71.77220000
C      -42.30280000     -31.34610000     -72.13420000
C      -43.69780000     -32.15100000     -70.40820000
H      -41.92960000     -31.12960000     -73.11930000
C      -42.52840000     -31.90510000     -69.68910000
C      -44.79810000     -32.66920000     -69.54990000
C      -44.34790000     -32.91650000     -68.26740000
S      -41.22740000     -31.37610000     -70.70770000
S      -42.66720000     -32.56490000     -68.08160000
H      -44.88430000     -33.22890000     -67.38600000
