40
Properties=species:S:1:pos:R:3 #=T CELL(abcABC):=T 1.889726e+02=T 90.00000=T Traj:=T positionsangstrom=T Step:=T 0=T Bead:=T pbc="F F F"
C      -48.97920000     -35.11200000     -71.59620000
C      -47.61700000     -35.10650000     -71.20950000
C      -46.60750000     -35.07470000     -72.29030000
C      -47.01860000     -35.02920000     -73.60260000
C      -48.40600000     -35.12440000     -73.97640000
C      -49.37150000     -35.20830000     -72.94170000
H      -49.79550000     -35.12760000     -70.88510000
H      -45.58180000     -35.07490000     -72.16120000
H      -48.72020000     -35.10260000     -74.99610000
H      -50.41190000     -35.54310000     -73.11760000
C      -46.02090000     -34.79740000     -74.80560000
H      -46.49950000     -35.17000000     -75.71860000
H      -45.13490000     -35.27340000     -74.51860000
C      -47.19440000     -35.08340000     -69.70500000
H      -47.58870000     -36.02120000     -69.23780000
H      -46.05880000     -35.08140000     -69.56400000
S      -45.61980000     -32.98580000     -74.98710000
S      -48.06600000     -33.58010000     -68.93290000
C      -43.93690000     -32.96480000     -74.08700000
H      -44.06410000     -33.92940000     -73.58860000
H      -43.23740000     -32.99290000     -74.88410000
C      -47.50490000     -32.21950000     -70.10200000
H      -47.50820000     -31.25260000     -69.47200000
H      -48.34290000     -32.21830000     -70.91370000
C      -46.15560000     -32.28650000     -70.79250000
H      -46.14950000     -33.21310000     -71.35450000
H      -46.08750000     -31.40620000     -71.45200000
C      -43.73030000     -31.85540000     -73.06600000
H      -44.68940000     -31.41100000     -72.68380000
H      -43.27000000     -31.04180000     -73.64570000
C      -43.00320000     -32.25070000     -71.82680000
C      -41.65520000     -32.34500000     -71.79970000
C      -43.56610000     -32.41970000     -70.48960000
H      -41.03840000     -32.38250000     -72.72940000
C      -42.58170000     -32.60680000     -69.57880000
C      -44.92490000     -32.34570000     -69.92880000
C      -44.91590000     -32.60890000     -68.56170000
S      -40.95320000     -32.75100000     -70.24380000
S      -43.26800000     -32.75250000     -67.93370000
H      -45.73550000     -32.45970000     -67.87490000
