40
Properties=species:S:1:pos:R:3 #=T CELL(abcABC):=T 1.889726e+02=T 90.00000=T Traj:=T positionsangstrom=T Step:=T 0=T Bead:=T pbc="F F F"
C      -43.52740000     -32.18910000     -68.18440000
C      -43.94860000     -32.21920000     -69.53330000
C      -45.22330000     -32.70450000     -69.77220000
C      -46.15020000     -33.05030000     -68.75730000
C      -45.69950000     -32.98510000     -67.40460000
C      -44.42400000     -32.46060000     -67.16870000
H      -42.55950000     -31.81700000     -67.94550000
H      -45.59440000     -32.75050000     -70.77300000
H      -46.37000000     -33.16120000     -66.57730000
H      -44.05130000     -32.38570000     -66.08840000
C      -47.52160000     -33.72410000     -69.05300000
H      -47.83350000     -33.39730000     -70.05580000
H      -48.29470000     -33.36940000     -68.34170000
C      -43.13330000     -31.83940000     -70.78310000
H      -43.82840000     -31.71600000     -71.55350000
H      -42.56930000     -30.95200000     -70.55340000
S      -47.35990000     -35.50800000     -69.06430000
S      -41.78710000     -32.94180000     -71.43770000
C      -46.08220000     -35.76310000     -70.44440000
H      -45.30060000     -35.01620000     -70.47620000
H      -45.75400000     -36.75820000     -70.15840000
C      -42.77290000     -34.46740000     -71.33310000
H      -43.58990000     -34.17920000     -70.64930000
H      -42.21580000     -35.35280000     -71.00420000
C      -43.34920000     -34.81670000     -72.75910000
H      -42.55420000     -35.10890000     -73.47850000
H      -43.97390000     -35.72330000     -72.50310000
C      -46.61150000     -35.92030000     -71.97150000
H      -47.42320000     -36.63970000     -71.90300000
H      -45.77950000     -36.52260000     -72.49780000
C      -46.80280000     -34.57890000     -72.60630000
C      -48.06040000     -34.00990000     -72.65410000
C      -45.74970000     -33.69690000     -73.13700000
H      -48.98470000     -34.24280000     -72.12140000
C      -46.24350000     -32.49620000     -73.62700000
C      -44.28610000     -33.74830000     -73.27340000
C      -43.83480000     -32.61860000     -73.90000000
S      -47.96980000     -32.36590000     -73.32880000
S      -45.09130000     -31.47520000     -74.39680000
H      -42.80570000     -32.27270000     -73.89300000
