40
Properties=species:S:1:pos:R:3 #=T CELL(abcABC):=T 1.889726e+02=T 90.00000=T Traj:=T positionsangstrom=T Step:=T 0=T Bead:=T pbc="F F F"
C      -49.02540000     -35.55090000     -71.51130000
C      -47.65930000     -35.38760000     -71.19210000
C      -46.74720000     -35.09340000     -72.23130000
C      -47.20620000     -34.92640000     -73.58870000
C      -48.55050000     -35.10530000     -73.90790000
C      -49.40300000     -35.49450000     -72.83100000
H      -49.81730000     -35.72410000     -70.84420000
H      -45.66880000     -35.06490000     -72.03590000
H      -48.86240000     -35.17420000     -74.89170000
H      -50.50570000     -35.48870000     -73.02750000
C      -46.14060000     -34.81260000     -74.66730000
H      -46.55960000     -35.26760000     -75.67720000
H      -45.17900000     -35.37950000     -74.46420000
C      -47.23440000     -35.17830000     -69.77780000
H      -47.66640000     -35.97460000     -69.21040000
H      -46.16450000     -35.26730000     -69.67490000
S      -45.60340000     -33.00730000     -74.87370000
S      -47.94690000     -33.65660000     -69.03900000
C      -43.93900000     -32.87800000     -74.04070000
H      -43.64280000     -33.84890000     -73.53440000
H      -43.08390000     -32.75400000     -74.70740000
C      -47.50440000     -32.13360000     -70.01740000
H      -47.49650000     -31.40050000     -69.18440000
H      -48.28260000     -32.02700000     -70.71670000
C      -46.17460000     -32.10770000     -70.78910000
H      -46.20270000     -32.76180000     -71.65640000
H      -46.10590000     -31.09660000     -71.24110000
C      -43.81930000     -31.67750000     -73.08860000
H      -44.77490000     -31.32190000     -72.76410000
H      -43.31550000     -30.82090000     -73.62040000
C      -43.04300000     -32.10220000     -71.89820000
C      -41.69220000     -32.18170000     -71.86860000
C      -43.55450000     -32.50800000     -70.56500000
H      -40.98750000     -31.66830000     -72.52720000
C      -42.54690000     -32.72300000     -69.65060000
C      -44.90540000     -32.41130000     -69.94800000
C      -44.78510000     -32.63350000     -68.55790000
S      -40.97470000     -32.46660000     -70.27420000
S      -43.10520000     -32.79160000     -68.03240000
H      -45.57270000     -32.78530000     -67.86520000
