40
Properties=species:S:1:pos:R:3 #=T CELL(abcABC):=T 1.889726e+02=T 90.00000=T Traj:=T positionsangstrom=T Step:=T 0=T Bead:=T pbc="F F F"
C      -45.52910000     -34.46480000     -75.13780000
C      -45.53830000     -33.11260000     -74.64970000
C      -46.64660000     -32.55500000     -74.13290000
C      -47.88520000     -33.26100000     -73.92550000
C      -47.84740000     -34.57870000     -74.36160000
C      -46.69130000     -35.14390000     -74.97690000
H      -44.62840000     -34.84590000     -75.61150000
H      -46.66270000     -31.55570000     -73.96150000
H      -48.74610000     -35.20150000     -74.29300000
H      -46.78200000     -36.14400000     -75.43030000
C      -49.08600000     -32.59180000     -73.32740000
H      -49.85270000     -33.27330000     -73.04480000
H      -49.58140000     -31.83690000     -73.92340000
C      -44.24860000     -32.20000000     -74.82940000
H      -43.86600000     -32.17610000     -75.87450000
H      -44.39310000     -31.23990000     -74.51330000
S      -48.67370000     -31.50040000     -71.88550000
S      -42.73790000     -32.93020000     -74.00140000
C      -47.90420000     -32.77600000     -70.69280000
H      -48.43970000     -32.63900000     -69.73320000
H      -48.18570000     -33.73420000     -71.14540000
C      -43.36380000     -33.48020000     -72.31410000
H      -42.87900000     -34.43930000     -72.14790000
H      -44.41900000     -33.66570000     -72.39240000
C      -43.12220000     -32.44890000     -71.16150000
H      -42.19420000     -31.89850000     -71.30740000
H      -43.97490000     -31.76240000     -71.15440000
C      -46.41130000     -32.80130000     -70.54250000
H      -45.98660000     -31.75860000     -70.55460000
H      -46.02650000     -33.32900000     -71.41260000
C      -45.82000000     -33.33910000     -69.29000000
C      -46.51090000     -33.87780000     -68.25030000
C      -44.33690000     -33.58270000     -69.15190000
H      -47.52330000     -33.79360000     -68.09920000
C      -44.02730000     -34.30980000     -67.98650000
C      -43.14070000     -33.13550000     -69.80920000
C      -41.99870000     -33.46660000     -69.07560000
S      -45.46780000     -34.71590000     -67.14640000
S      -42.33330000     -34.42040000     -67.68370000
H      -40.94530000     -33.24560000     -69.31750000
