40
Properties=species:S:1:pos:R:3 #=T CELL(abcABC):=T 1.889726e+02=T 90.00000=T Traj:=T positionsangstrom=T Step:=T 0=T Bead:=T pbc="F F F"
C      -43.89550000     -31.63140000     -68.27600000
C      -44.29360000     -31.48780000     -69.65050000
C      -45.44250000     -32.20230000     -70.07790000
C      -46.13460000     -33.05250000     -69.20350000
C      -45.78540000     -33.02710000     -67.81670000
C      -44.67160000     -32.36740000     -67.34800000
H      -43.08700000     -31.04640000     -67.80390000
H      -45.64860000     -31.94140000     -71.09970000
H      -46.47470000     -33.46550000     -67.05910000
H      -44.46760000     -32.32800000     -66.28120000
C      -47.46660000     -33.74650000     -69.66690000
H      -47.74430000     -33.42280000     -70.65870000
H      -48.37860000     -33.52760000     -69.06200000
C      -43.34060000     -30.78860000     -70.61460000
H      -43.88320000     -30.35600000     -71.52850000
H      -42.96610000     -29.93130000     -70.12230000
S      -47.28120000     -35.62810000     -69.58080000
S      -41.91030000     -31.82780000     -71.12840000
C      -45.60210000     -35.88540000     -70.07190000
H      -45.01600000     -35.03430000     -69.73430000
H      -45.08090000     -36.65570000     -69.44190000
C      -42.43750000     -33.72320000     -71.11390000
H      -43.23720000     -33.73650000     -70.35100000
H      -41.59640000     -34.31860000     -70.80300000
C      -42.90110000     -34.04940000     -72.57540000
H      -42.17150000     -33.63630000     -73.26810000
H      -42.88720000     -35.12830000     -72.71190000
C      -45.40550000     -36.30010000     -71.57230000
H      -45.83940000     -37.23110000     -71.64970000
H      -44.33690000     -36.49640000     -71.76680000
C      -46.13130000     -35.27060000     -72.42930000
C      -47.44150000     -35.34650000     -72.72410000
C      -45.49600000     -34.07800000     -73.02150000
H      -48.17800000     -36.21030000     -72.50540000
C      -46.50080000     -33.22390000     -73.56780000
C      -44.20250000     -33.40760000     -73.03450000
C      -44.20890000     -32.15530000     -73.61040000
S      -48.09220000     -33.93670000     -73.53960000
S      -45.85990000     -31.64490000     -74.00640000
H      -43.31420000     -31.55510000     -73.69390000
