40
Properties=species:S:1:pos:R:3 #=T CELL(abcABC):=T 1.889726e+02=T 90.00000=T Traj:=T positionsangstrom=T Step:=T 0=T Bead:=T pbc="F F F"
C      -43.47610000     -32.07260000     -68.22330000
C      -43.89620000     -31.76770000     -69.54110000
C      -45.16580000     -32.24760000     -69.89940000
C      -46.01090000     -32.91790000     -69.03940000
C      -45.54900000     -33.23250000     -67.73770000
C      -44.27860000     -32.82470000     -67.35720000
H      -42.53740000     -31.67470000     -67.82030000
H      -45.57470000     -32.05600000     -70.90910000
H      -46.18130000     -33.72320000     -67.02430000
H      -43.95110000     -32.80480000     -66.30750000
C      -47.33810000     -33.43240000     -69.50530000
H      -47.61590000     -33.07690000     -70.53700000
H      -48.08210000     -33.02670000     -68.85010000
C      -42.92080000     -31.07810000     -70.54190000
H      -43.33630000     -30.60430000     -71.43180000
H      -42.29270000     -30.32320000     -70.17410000
S      -47.35320000     -35.27330000     -69.35310000
S      -41.67320000     -32.32110000     -71.10420000
C      -45.73720000     -35.80560000     -70.07160000
H      -44.90220000     -35.14350000     -69.85330000
H      -45.45810000     -36.70390000     -69.51970000
C      -42.62810000     -33.88640000     -71.18180000
H      -43.45320000     -33.97820000     -70.43010000
H      -41.94830000     -34.76330000     -70.83840000
C      -43.10170000     -34.11800000     -72.59450000
H      -42.30060000     -33.94180000     -73.32680000
H      -43.26110000     -35.19580000     -72.52870000
C      -45.85050000     -36.12760000     -71.54930000
H      -46.37310000     -37.14110000     -71.65830000
H      -44.85820000     -36.46280000     -71.85260000
C      -46.37050000     -35.00400000     -72.49960000
C      -47.70200000     -35.04160000     -72.80130000
C      -45.75680000     -33.91290000     -73.13540000
H      -48.42110000     -35.79840000     -72.55390000
C      -46.68480000     -33.03750000     -73.69140000
C      -44.38180000     -33.39720000     -73.09290000
C      -44.28720000     -32.14450000     -73.69000000
S      -48.28740000     -33.68390000     -73.69980000
S      -45.92720000     -31.58200000     -74.18570000
H      -43.30300000     -31.60240000     -73.78590000
