40
Properties=species:S:1:pos:R:3 #=T CELL(abcABC):=T 1.889726e+02=T 90.00000=T Traj:=T positionsangstrom=T Step:=T 0=T Bead:=T pbc="F F F"
C      -48.92070000     -33.88500000     -72.04040000
C      -47.82290000     -34.68830000     -71.70920000
C      -46.87790000     -34.98510000     -72.70460000
C      -47.00690000     -34.46490000     -73.98150000
C      -48.17410000     -33.66880000     -74.28420000
C      -49.11990000     -33.40720000     -73.36080000
H      -49.64590000     -33.60720000     -71.35660000
H      -45.92870000     -35.42630000     -72.33540000
H      -48.38250000     -33.38710000     -75.29690000
H      -50.10980000     -32.91300000     -73.54410000
C      -45.94250000     -34.72570000     -75.07320000
H      -46.46110000     -35.00960000     -75.93740000
H      -45.25030000     -35.54950000     -74.63900000
C      -47.52250000     -35.26480000     -70.35840000
H      -48.19130000     -36.13630000     -70.19570000
H      -46.44050000     -35.63910000     -70.37710000
S      -45.05590000     -33.19090000     -75.54010000
S      -47.63730000     -34.23270000     -68.83820000
C      -43.84330000     -33.03800000     -74.09830000
H      -43.18990000     -33.94100000     -74.13400000
H      -43.18980000     -32.22710000     -74.42600000
C      -47.58070000     -32.49620000     -69.45530000
H      -47.60790000     -31.91400000     -68.52290000
H      -48.38460000     -32.34250000     -70.22180000
C      -46.23920000     -32.11520000     -70.16040000
H      -46.06990000     -32.58310000     -71.12030000
H      -46.48580000     -31.10760000     -70.48760000
C      -44.42600000     -32.67860000     -72.71500000
H      -45.23720000     -33.30570000     -72.46140000
H      -44.74960000     -31.57150000     -72.68020000
C      -43.37560000     -32.74310000     -71.55990000
C      -42.08050000     -33.14540000     -71.72070000
C      -43.74940000     -32.47880000     -70.18190000
H      -41.57340000     -33.09670000     -72.70310000
C      -42.67340000     -32.75130000     -69.34620000
C      -44.97460000     -32.19820000     -69.46420000
C      -44.76930000     -32.13730000     -68.11640000
S      -41.30810000     -33.43880000     -70.12380000
S      -43.11420000     -32.63500000     -67.64050000
H      -45.44090000     -32.02580000     -67.26830000
