40
Properties=species:S:1:pos:R:3 #=T CELL(abcABC):=T 1.889726e+02=T 90.00000=T Traj:=T positionsangstrom=T Step:=T 0=T Bead:=T pbc="F F F"
C      -44.24560000     -31.27510000     -68.18750000
C      -44.56190000     -31.45840000     -69.53770000
C      -45.48890000     -32.32400000     -70.03710000
C      -46.25950000     -33.02080000     -69.04750000
C      -46.01740000     -32.79650000     -67.68160000
C      -44.96660000     -31.96630000     -67.22400000
H      -43.44180000     -30.62070000     -67.86170000
H      -45.55220000     -32.44860000     -71.10430000
H      -46.70180000     -33.32130000     -67.04210000
H      -44.88650000     -31.90390000     -66.13500000
C      -47.38650000     -34.02120000     -69.49950000
H      -47.75140000     -33.72680000     -70.54410000
H      -48.24500000     -33.73270000     -68.89260000
C      -43.59730000     -30.73480000     -70.53700000
H      -43.97210000     -30.65260000     -71.54160000
H      -43.18170000     -29.67680000     -70.17690000
S      -47.01950000     -35.73210000     -69.32260000
S      -42.01200000     -31.68050000     -70.74040000
C      -45.26620000     -35.80460000     -70.16190000
H      -44.89380000     -34.74810000     -70.03670000
H      -44.66430000     -36.38150000     -69.46850000
C      -42.63990000     -33.34950000     -71.04000000
H      -43.43900000     -33.51750000     -70.29530000
H      -41.80070000     -33.98220000     -70.53510000
C      -42.86700000     -33.82500000     -72.47440000
H      -42.09210000     -33.41940000     -73.10610000
H      -42.80580000     -34.90450000     -72.48760000
C      -45.25850000     -36.29230000     -71.57520000
H      -45.76340000     -37.31500000     -71.59330000
H      -44.22070000     -36.41700000     -71.96620000
C      -46.07790000     -35.33770000     -72.45740000
C      -47.37840000     -35.44930000     -72.77560000
C      -45.47280000     -34.05320000     -73.03610000
H      -48.13330000     -36.09450000     -72.36500000
C      -46.40350000     -33.32000000     -73.76130000
C      -44.14840000     -33.40140000     -73.08940000
C      -44.22530000     -32.18770000     -73.78220000
S      -47.96450000     -34.10850000     -73.77500000
S      -45.78830000     -31.99140000     -74.60710000
H      -43.42300000     -31.46110000     -73.94600000
