40
Properties=species:S:1:pos:R:3 #=T CELL(abcABC):=T 1.889726e+02=T 90.00000=T Traj:=T positionsangstrom=T Step:=T 0=T Bead:=T pbc="F F F"
C      -45.49960000     -34.36240000     -75.08440000
C      -45.48320000     -33.06680000     -74.69790000
C      -46.57730000     -32.51250000     -74.06480000
C      -47.79790000     -33.17690000     -73.88160000
C      -47.80990000     -34.55110000     -74.19720000
C      -46.71410000     -35.11310000     -74.86490000
H      -44.68700000     -34.77800000     -75.54400000
H      -46.43570000     -31.47510000     -73.68070000
H      -48.71480000     -35.21440000     -73.90170000
H      -46.73390000     -36.11180000     -75.09130000
C      -49.02110000     -32.51450000     -73.23210000
H      -49.66980000     -33.39490000     -72.90030000
H      -49.58910000     -32.01920000     -74.01020000
C      -44.28120000     -32.19860000     -74.89220000
H      -43.96000000     -32.06960000     -75.97750000
H      -44.50670000     -31.22430000     -74.45530000
S      -48.59650000     -31.43230000     -71.79520000
S      -42.76590000     -32.96610000     -74.08630000
C      -47.89190000     -32.67290000     -70.56930000
H      -48.33520000     -32.55870000     -69.58930000
H      -48.18650000     -33.69730000     -70.88230000
C      -43.29500000     -33.57590000     -72.41710000
H      -42.67200000     -34.47790000     -72.28330000
H      -44.32090000     -33.95120000     -72.42840000
C      -43.03100000     -32.61640000     -71.20530000
H      -41.99220000     -32.23310000     -71.29590000
H      -43.66200000     -31.72150000     -71.25560000
C      -46.40540000     -32.52950000     -70.41610000
H      -46.19860000     -31.51110000     -70.03820000
H      -45.87680000     -32.57050000     -71.36620000
C      -45.78950000     -33.44380000     -69.42610000
C      -46.58700000     -34.11620000     -68.50500000
C      -44.37460000     -33.60290000     -69.19830000
H      -47.65020000     -34.22410000     -68.39050000
C      -44.09490000     -34.29290000     -68.01610000
C      -43.15020000     -33.25290000     -69.88280000
C      -41.95740000     -33.61400000     -69.21660000
S      -45.58920000     -34.71620000     -67.14710000
S      -42.42180000     -34.41210000     -67.67470000
H      -40.92950000     -33.54630000     -69.45090000
