40
Properties=species:S:1:pos:R:3 #=T CELL(abcABC):=T 1.889726e+02=T 90.00000=T Traj:=T positionsangstrom=T Step:=T 0=T Bead:=T pbc="F F F"
C      -43.55430000     -32.10390000     -68.27280000
C      -43.96720000     -31.64290000     -69.53710000
C      -45.25470000     -32.13310000     -69.94800000
C      -46.12010000     -32.87810000     -69.08260000
C      -45.69800000     -33.11450000     -67.76980000
C      -44.45700000     -32.69060000     -67.38920000
H      -42.50930000     -31.99930000     -67.88680000
H      -45.60270000     -31.89710000     -70.98270000
H      -46.36210000     -33.68320000     -67.11650000
H      -44.01260000     -33.02930000     -66.43490000
C      -47.38490000     -33.38530000     -69.69280000
H      -47.44170000     -33.17660000     -70.78590000
H      -48.26230000     -33.07280000     -69.16460000
C      -43.03960000     -30.96120000     -70.47440000
H      -43.68270000     -30.54390000     -71.27140000
H      -42.46080000     -30.13490000     -69.99730000
S      -47.43460000     -35.31540000     -69.46140000
S      -41.69810000     -32.10280000     -71.16530000
C      -45.67200000     -35.82130000     -70.03080000
H      -44.81370000     -35.10090000     -69.87780000
H      -45.49880000     -36.66730000     -69.31150000
C      -42.38670000     -33.81670000     -71.37470000
H      -43.10380000     -34.09580000     -70.60660000
H      -41.44080000     -34.36590000     -71.29050000
C      -43.02810000     -34.15720000     -72.74480000
H      -42.31450000     -34.10260000     -73.59420000
H      -43.30400000     -35.23280000     -72.78510000
C      -45.66720000     -36.21690000     -71.49480000
H      -46.22460000     -37.16110000     -71.66960000
H      -44.71530000     -36.35160000     -71.81170000
C      -46.33680000     -35.19380000     -72.41040000
C      -47.63380000     -35.22280000     -72.71660000
C      -45.70430000     -33.98490000     -72.92530000
H      -48.23250000     -36.06240000     -72.42080000
C      -46.58920000     -33.10190000     -73.46620000
C      -44.31780000     -33.42680000     -73.02500000
C      -44.32970000     -32.18600000     -73.64490000
S      -48.22690000     -33.77490000     -73.59100000
S      -45.89400000     -31.66140000     -74.13830000
H      -43.40480000     -31.66090000     -73.79180000
