40
Properties=species:S:1:pos:R:3 #=T CELL(abcABC):=T 1.889726e+02=T 90.00000=T Traj:=T positionsangstrom=T Step:=T 0=T Bead:=T pbc="F F F"
C      -45.64240000     -31.11810000     -68.38850000
C      -45.61760000     -31.45230000     -69.77600000
C      -46.30320000     -32.61470000     -70.20850000
C      -46.92450000     -33.42740000     -69.28590000
C      -47.00340000     -33.03320000     -67.90970000
C      -46.35340000     -31.88590000     -67.47660000
H      -45.04340000     -30.27150000     -68.02790000
H      -46.23660000     -32.79070000     -71.25800000
H      -47.34030000     -33.75330000     -67.18420000
H      -46.44040000     -31.64040000     -66.36680000
C      -47.64610000     -34.59800000     -69.86720000
H      -47.86580000     -34.49180000     -70.95570000
H      -48.67500000     -34.62190000     -69.44570000
C      -44.83100000     -30.58990000     -70.75460000
H      -45.10520000     -30.81880000     -71.72020000
H      -44.81680000     -29.48150000     -70.56700000
S      -47.04650000     -36.28940000     -69.50670000
S      -42.97340000     -30.90420000     -70.56850000
C      -45.23710000     -36.09200000     -69.88730000
H      -44.87890000     -35.25290000     -69.31760000
H      -44.69210000     -36.96710000     -69.46150000
C      -42.74720000     -32.74100000     -70.20950000
H      -43.68140000     -33.14190000     -69.73530000
H      -41.90740000     -32.74390000     -69.53190000
C      -42.55090000     -33.61990000     -71.48390000
H      -41.49030000     -33.42320000     -71.82410000
H      -42.65000000     -34.68500000     -71.25840000
C      -45.00260000     -36.26260000     -71.46850000
H      -45.61320000     -37.18950000     -71.70620000
H      -43.88370000     -36.51050000     -71.58750000
C      -45.41800000     -35.22470000     -72.47320000
C      -46.65990000     -35.32410000     -73.00230000
C      -44.67140000     -34.08060000     -72.91370000
H      -47.26100000     -36.19170000     -72.79100000
C      -45.44590000     -33.36730000     -73.89700000
C      -43.50270000     -33.34180000     -72.59500000
C      -43.25830000     -32.23750000     -73.43660000
S      -47.02040000     -34.10210000     -74.20510000
S      -44.62860000     -32.03280000     -74.58480000
H      -42.43930000     -31.51820000     -73.38260000
