40
Properties=species:S:1:pos:R:3 #=T CELL(abcABC):=T 1.889726e+02=T 90.00000=T Traj:=T positionsangstrom=T Step:=T 0=T Bead:=T pbc="F F F"
C      -45.51300000     -34.33460000     -75.04740000
C      -45.33980000     -33.00840000     -74.64630000
C      -46.48220000     -32.36810000     -74.06710000
C      -47.71160000     -33.05360000     -73.79510000
C      -47.75320000     -34.42450000     -74.06520000
C      -46.70010000     -35.09740000     -74.82260000
H      -44.66560000     -34.82930000     -75.49910000
H      -46.40120000     -31.27140000     -73.78340000
H      -48.70390000     -34.90900000     -73.92370000
H      -46.79960000     -36.11680000     -75.17460000
C      -49.03830000     -32.46760000     -73.22690000
H      -49.74480000     -33.24610000     -72.89350000
H      -49.50280000     -31.85290000     -74.01440000
C      -44.08360000     -32.18200000     -74.89740000
H      -43.85330000     -32.01860000     -75.89040000
H      -44.29530000     -31.14410000     -74.52150000
S      -48.70000000     -31.39540000     -71.75770000
S      -42.63630000     -33.02370000     -74.10680000
C      -47.95080000     -32.38920000     -70.45450000
H      -48.32120000     -31.87710000     -69.53290000
H      -48.48490000     -33.34280000     -70.46890000
C      -43.24450000     -33.79250000     -72.49900000
H      -42.71480000     -34.69870000     -72.27920000
H      -44.30410000     -34.04380000     -72.57580000
C      -43.06700000     -32.77390000     -71.29210000
H      -42.09080000     -32.29690000     -71.32520000
H      -43.74940000     -31.92490000     -71.47180000
C      -46.41820000     -32.57310000     -70.50560000
H      -46.02230000     -31.54990000     -70.57510000
H      -46.15750000     -33.13180000     -71.43930000
C      -45.85610000     -33.34490000     -69.34670000
C      -46.61300000     -33.97520000     -68.38250000
C      -44.41460000     -33.52890000     -69.13630000
H      -47.69900000     -34.01950000     -68.15620000
C      -44.17230000     -34.28570000     -68.02160000
C      -43.18310000     -33.27730000     -69.94340000
C      -42.08450000     -33.83620000     -69.29770000
S      -45.62130000     -34.87970000     -67.23700000
S      -42.45280000     -34.44330000     -67.70910000
H      -41.03920000     -33.61430000     -69.42550000
