40
Properties=species:S:1:pos:R:3 #=T CELL(abcABC):=T 1.889726e+02=T 90.00000=T Traj:=T positionsangstrom=T Step:=T 0=T Bead:=T pbc="F F F"
C      -45.37630000     -31.31070000     -68.42850000
C      -45.50740000     -31.48570000     -69.78590000
C      -46.38320000     -32.52860000     -70.21900000
C      -47.04040000     -33.33930000     -69.28790000
C      -46.96850000     -33.08780000     -67.94440000
C      -46.15720000     -32.01050000     -67.50650000
H      -44.78140000     -30.45540000     -68.08030000
H      -46.67620000     -32.70040000     -71.23070000
H      -47.47280000     -33.58910000     -67.09320000
H      -46.15540000     -31.84530000     -66.39860000
C      -47.89170000     -34.49260000     -69.72200000
H      -48.15040000     -34.43470000     -70.73040000
H      -48.65330000     -34.57530000     -68.97030000
C      -44.72600000     -30.74560000     -70.79520000
H      -44.97290000     -31.07470000     -71.84320000
H      -44.79450000     -29.60900000     -70.77850000
S      -47.00030000     -36.10220000     -69.43020000
S      -42.86250000     -30.98470000     -70.72020000
C      -45.22720000     -35.86270000     -69.89270000
H      -44.84090000     -34.88860000     -69.46320000
H      -44.67370000     -36.59840000     -69.35100000
C      -42.63330000     -32.83890000     -70.38700000
H      -43.49110000     -33.21830000     -69.82820000
H      -41.80310000     -33.09460000     -69.69520000
C      -42.44310000     -33.65540000     -71.66240000
H      -41.46930000     -33.44190000     -72.08570000
H      -42.37520000     -34.68240000     -71.40340000
C      -44.83220000     -36.08520000     -71.39270000
H      -45.00480000     -37.10610000     -71.66700000
H      -43.80190000     -35.95520000     -71.41770000
C      -45.53250000     -35.14650000     -72.32690000
C      -46.75900000     -35.31410000     -72.82650000
C      -44.79470000     -34.00340000     -72.87380000
H      -47.48320000     -36.08650000     -72.56700000
C      -45.60900000     -33.31230000     -73.74310000
C      -43.48480000     -33.38680000     -72.70700000
C      -43.30840000     -32.43580000     -73.70950000
S      -47.17600000     -34.04640000     -73.96130000
S      -44.71350000     -32.19320000     -74.67360000
H      -42.44490000     -31.83120000     -73.94880000
