40
Properties=species:S:1:pos:R:3 #=T CELL(abcABC):=T 1.889726e+02=T 90.00000=T Traj:=T positionsangstrom=T Step:=T 0=T Bead:=T pbc="F F F"
C      -44.54010000     -31.17150000     -67.97850000
C      -44.67200000     -31.44160000     -69.33320000
C      -45.64800000     -32.35160000     -69.84710000
C      -46.46420000     -32.95440000     -68.92880000
C      -46.29550000     -32.69970000     -67.52550000
C      -45.31010000     -31.84500000     -67.06220000
H      -43.83320000     -30.40270000     -67.67700000
H      -45.83120000     -32.61260000     -70.95190000
H      -47.03550000     -33.26010000     -66.97180000
H      -45.44810000     -31.51170000     -66.07200000
C      -47.33050000     -34.12600000     -69.34150000
H      -47.52610000     -34.19680000     -70.41060000
H      -48.30800000     -34.05020000     -68.75610000
C      -43.81280000     -30.59450000     -70.25330000
H      -44.41680000     -30.32700000     -71.17910000
H      -43.47770000     -29.71560000     -69.83300000
S      -46.66070000     -35.80040000     -68.92340000
S      -42.32410000     -31.58900000     -70.85760000
C      -45.17440000     -35.79080000     -69.99650000
H      -44.83010000     -34.86010000     -70.02490000
H      -44.53770000     -36.55860000     -69.63110000
C      -42.78540000     -33.41200000     -70.98050000
H      -43.83810000     -33.48820000     -70.54270000
H      -42.08190000     -34.02380000     -70.35870000
C      -42.79850000     -33.79590000     -72.42870000
H      -41.91420000     -33.38190000     -73.00160000
H      -42.71660000     -34.87850000     -72.58980000
C      -45.45610000     -36.25760000     -71.49920000
H      -46.15670000     -37.09940000     -71.65270000
H      -44.39610000     -36.52870000     -71.86070000
C      -46.00930000     -35.15910000     -72.42970000
C      -47.32790000     -35.34440000     -72.85500000
C      -45.32890000     -34.04730000     -73.14450000
H      -47.89320000     -36.24620000     -72.67700000
C      -46.22300000     -33.43470000     -74.08900000
C      -44.02620000     -33.39030000     -73.17290000
C      -44.05960000     -32.37660000     -74.11480000
S      -47.78100000     -34.11800000     -74.06330000
S      -45.56810000     -32.14400000     -74.96490000
H      -43.12670000     -31.83360000     -74.34000000
