40
Properties=species:S:1:pos:R:3 #=T CELL(abcABC):=T 1.889726e+02=T 90.00000=T Traj:=T positionsangstrom=T Step:=T 0=T Bead:=T pbc="F F F"
C      -45.00100000     -31.34140000     -68.49380000
C      -45.39270000     -31.52090000     -69.83600000
C      -46.37020000     -32.49010000     -70.00510000
C      -47.03940000     -33.20010000     -68.97400000
C      -46.63330000     -32.92780000     -67.65220000
C      -45.60220000     -32.01920000     -67.43880000
H      -44.19780000     -30.66370000     -68.27070000
H      -46.64630000     -32.81820000     -71.06500000
H      -47.04510000     -33.52430000     -66.85160000
H      -45.28660000     -31.85100000     -66.48820000
C      -47.96540000     -34.32760000     -69.35200000
H      -48.41880000     -34.11160000     -70.34080000
H      -48.77470000     -34.35330000     -68.63960000
C      -44.54390000     -30.96660000     -70.89440000
H      -44.84000000     -31.25880000     -71.92940000
H      -44.51850000     -29.93740000     -70.79130000
S      -47.13560000     -36.00080000     -69.33600000
S      -42.69590000     -31.31660000     -70.72860000
C      -45.31770000     -35.72720000     -69.67520000
H      -44.99280000     -34.77480000     -69.31810000
H      -44.76990000     -36.45560000     -68.92080000
C      -42.43960000     -33.09780000     -70.82910000
H      -43.26850000     -33.63200000     -70.41220000
H      -41.52540000     -33.29400000     -70.31080000
C      -42.37270000     -33.58320000     -72.30510000
H      -41.52770000     -33.14710000     -72.81160000
H      -42.25540000     -34.63490000     -72.44950000
C      -44.85770000     -35.93540000     -71.12330000
H      -45.02450000     -36.90870000     -71.39990000
H      -43.73530000     -35.76210000     -71.11820000
C      -45.48790000     -35.08120000     -72.19270000
C      -46.74500000     -35.31120000     -72.57920000
C      -44.88530000     -33.91310000     -72.90320000
H      -47.47410000     -35.97860000     -72.15930000
C      -45.73980000     -33.41620000     -73.88980000
C      -43.59770000     -33.29150000     -73.11410000
C      -43.56290000     -32.32260000     -74.08240000
S      -47.31400000     -34.16070000     -73.80930000
S      -45.08960000     -32.07680000     -74.83350000
H      -42.73490000     -31.58960000     -74.20990000
