40
Properties=species:S:1:pos:R:3 #=T CELL(abcABC):=T 1.889726e+02=T 90.00000=T Traj:=T positionsangstrom=T Step:=T 0=T Bead:=T pbc="F F F"
C      -46.54700000     -31.41250000     -68.27960000
C      -45.97410000     -31.60370000     -69.55010000
C      -46.52650000     -32.52470000     -70.44960000
C      -47.64190000     -33.31840000     -70.08130000
C      -48.24300000     -33.05350000     -68.84780000
C      -47.58910000     -32.21250000     -67.90630000
H      -46.16890000     -30.61560000     -67.63740000
H      -46.13720000     -32.58930000     -71.51120000
H      -49.05020000     -33.68280000     -68.46860000
H      -48.07990000     -31.95950000     -66.95340000
C      -48.11210000     -34.40520000     -71.06850000
H      -47.70790000     -34.21810000     -72.12070000
H      -49.18720000     -34.47980000     -71.22780000
C      -44.92590000     -30.69380000     -70.09380000
H      -44.80220000     -30.77710000     -71.21910000
H      -45.08950000     -29.63460000     -69.91130000
S      -47.64000000     -36.14160000     -70.63480000
S      -43.19010000     -31.09290000     -69.38080000
C      -45.85730000     -35.81320000     -70.14940000
H      -45.78070000     -34.73480000     -69.98010000
H      -45.56270000     -36.34470000     -69.24590000
C      -43.13150000     -32.88580000     -69.32230000
H      -44.18760000     -33.19110000     -69.11550000
H      -42.53010000     -33.09110000     -68.45730000
C      -42.64050000     -33.59650000     -70.63470000
H      -41.59960000     -33.25370000     -70.77240000
H      -42.60840000     -34.65480000     -70.53210000
C      -44.93590000     -36.13460000     -71.29850000
H      -45.06820000     -37.21250000     -71.50610000
H      -43.88130000     -36.08410000     -70.88870000
C      -45.03960000     -35.22790000     -72.52520000
C      -45.76200000     -35.58570000     -73.64460000
C      -44.25950000     -33.94750000     -72.64860000
H      -46.29180000     -36.53750000     -73.80590000
C      -44.49410000     -33.40190000     -73.97970000
C      -43.37320000     -33.19410000     -71.86590000
C      -43.05180000     -31.93800000     -72.42140000
S      -45.65990000     -34.38660000     -74.94330000
S      -43.75480000     -31.77240000     -74.02810000
H      -42.39770000     -31.09860000     -72.06410000
