40
Properties=species:S:1:pos:R:3 #=T CELL(abcABC):=T 1.889726e+02=T 90.00000=T Traj:=T positionsangstrom=T Step:=T 0=T Bead:=T pbc="F F F"
C      -46.22510000     -31.11030000     -68.08610000
C      -45.91160000     -31.26880000     -69.47800000
C      -46.52850000     -32.32790000     -70.18570000
C      -47.33930000     -33.31140000     -69.51970000
C      -47.59780000     -33.10400000     -68.16810000
C      -47.13470000     -31.98160000     -67.47670000
H      -45.75430000     -30.36790000     -67.46840000
H      -46.39770000     -32.39630000     -71.23290000
H      -48.12700000     -33.84130000     -67.47790000
H      -47.46490000     -31.91550000     -66.45080000
C      -47.85840000     -34.40480000     -70.36120000
H      -47.59680000     -34.14590000     -71.43020000
H      -48.96200000     -34.42400000     -70.27730000
C      -44.91600000     -30.42600000     -70.09900000
H      -45.11190000     -30.39490000     -71.10610000
H      -44.96240000     -29.34400000     -69.75860000
S      -47.15350000     -36.11870000     -69.95530000
S      -43.13500000     -31.05580000     -69.66500000
C      -45.31920000     -35.90000000     -69.98160000
H      -44.95920000     -34.98290000     -69.58380000
H      -44.99590000     -36.80730000     -69.36430000
C      -43.10610000     -32.86260000     -69.83690000
H      -44.18640000     -33.18830000     -69.80500000
H      -42.60420000     -33.31800000     -69.04090000
C      -42.50340000     -33.29870000     -71.23480000
H      -41.57930000     -32.75390000     -71.26930000
H      -42.38430000     -34.30570000     -71.10130000
C      -44.71330000     -36.17340000     -71.40620000
H      -44.94270000     -37.15480000     -71.77450000
H      -43.66070000     -36.08900000     -71.24280000
C      -45.12390000     -35.29720000     -72.56390000
C      -45.99880000     -35.76290000     -73.49730000
C      -44.49780000     -34.02320000     -72.93390000
H      -46.59470000     -36.71020000     -73.65410000
C      -45.03740000     -33.57880000     -74.14760000
C      -43.43260000     -33.15280000     -72.43460000
C      -43.27150000     -32.02840000     -73.28390000
S      -46.25390000     -34.64600000     -74.87350000
S      -44.40210000     -31.94820000     -74.52580000
H      -42.52690000     -31.25100000     -73.20610000
