40
Properties=species:S:1:pos:R:3 #=T CELL(abcABC):=T 1.889726e+02=T 90.00000=T Traj:=T positionsangstrom=T Step:=T 0=T Bead:=T pbc="F F F"
C      -44.35590000     -36.26880000     -72.46570000
C      -45.50960000     -36.04650000     -73.16660000
C      -45.52490000     -35.07800000     -74.21180000
C      -44.36630000     -34.38690000     -74.51770000
C      -43.15070000     -34.73660000     -73.86840000
C      -43.09820000     -35.76050000     -73.00580000
H      -44.37110000     -36.93960000     -71.56530000
H      -46.52000000     -34.96910000     -74.67460000
H      -42.23210000     -34.29200000     -74.14060000
H      -42.23960000     -36.11840000     -72.51450000
C      -44.35910000     -33.21050000     -75.51500000
H      -45.02720000     -33.22090000     -76.37320000
H      -43.34520000     -33.03210000     -75.86030000
C      -46.77080000     -36.75220000     -72.80680000
H      -47.21630000     -37.47760000     -73.55730000
H      -46.50090000     -37.44220000     -71.95390000
S      -44.88310000     -31.63160000     -74.67610000
S      -48.03640000     -35.50190000     -72.18380000
C      -44.01780000     -31.60850000     -73.02430000
H      -43.13910000     -32.36150000     -73.01700000
H      -43.74270000     -30.58760000     -72.80860000
C      -47.12140000     -34.94690000     -70.64700000
H      -46.16230000     -34.80790000     -71.01470000
H      -47.16980000     -35.64900000     -69.92400000
C      -47.60100000     -33.52790000     -70.23790000
H      -47.74420000     -32.83410000     -71.06230000
H      -48.60270000     -33.76270000     -69.86240000
C      -44.95020000     -32.13980000     -71.90530000
H      -45.01300000     -33.23660000     -71.94510000
H      -45.98590000     -31.90860000     -72.08250000
C      -44.65730000     -31.71260000     -70.48850000
C      -43.45220000     -31.22420000     -70.06280000
C      -45.44480000     -32.24400000     -69.37930000
H      -42.68980000     -30.81480000     -70.66380000
C      -44.88530000     -31.94630000     -68.17900000
C      -46.73220000     -32.91020000     -69.17000000
C      -47.03980000     -33.08080000     -67.83450000
S      -43.37480000     -31.07720000     -68.31280000
S      -45.86660000     -32.41880000     -66.82750000
H      -47.85250000     -33.61260000     -67.36310000
