40
Properties=species:S:1:pos:R:3 #=T CELL(abcABC):=T 1.889726e+02=T 90.00000=T Traj:=T positionsangstrom=T Step:=T 0=T Bead:=T pbc="F F F"
C      -45.91240000     -31.24220000     -68.27770000
C      -45.78380000     -31.37770000     -69.67230000
C      -46.47090000     -32.48060000     -70.25830000
C      -47.24820000     -33.39820000     -69.50480000
C      -47.41730000     -33.12550000     -68.15730000
C      -46.68830000     -32.12430000     -67.52810000
H      -45.47060000     -30.46600000     -67.73420000
H      -46.30670000     -32.54610000     -71.36720000
H      -47.96030000     -33.84830000     -67.59300000
H      -46.71170000     -32.05400000     -66.45400000
C      -47.85470000     -34.64950000     -70.15990000
H      -47.84700000     -34.58440000     -71.26750000
H      -48.80600000     -34.77140000     -69.65400000
C      -44.88340000     -30.56260000     -70.48790000
H      -45.01830000     -30.70950000     -71.59990000
H      -44.93990000     -29.54400000     -70.32410000
S      -46.95930000     -36.12060000     -69.60310000
S      -43.07330000     -30.88410000     -70.14400000
C      -45.18810000     -35.79720000     -70.10450000
H      -44.97030000     -34.69650000     -69.91420000
H      -44.66110000     -36.34710000     -69.32490000
C      -42.89820000     -32.71800000     -69.88290000
H      -43.63820000     -33.22130000     -69.36110000
H      -41.99470000     -32.86470000     -69.23370000
C      -42.63380000     -33.55360000     -71.22420000
H      -41.63090000     -33.41600000     -71.42620000
H      -42.69480000     -34.59250000     -70.81660000
C      -44.81600000     -36.29230000     -71.48570000
H      -45.19140000     -37.31050000     -71.67040000
H      -43.70790000     -36.39640000     -71.49810000
C      -45.23970000     -35.31630000     -72.58430000
C      -46.22820000     -35.56500000     -73.47660000
C      -44.70230000     -34.02220000     -72.85100000
H      -46.76970000     -36.46620000     -73.31910000
C      -45.40280000     -33.35100000     -73.83160000
C      -43.57800000     -33.29880000     -72.35560000
C      -43.38680000     -32.14890000     -73.13690000
S      -46.53410000     -34.36870000     -74.72050000
S      -44.50640000     -31.95810000     -74.43710000
H      -42.57210000     -31.41140000     -72.94900000
