40
Properties=species:S:1:pos:R:3 #=T CELL(abcABC):=T 1.889726e+02=T 90.00000=T Traj:=T positionsangstrom=T Step:=T 0=T Bead:=T pbc="F F F"
C      -44.65500000     -37.03290000     -72.71050000
C      -45.43390000     -36.11660000     -73.45870000
C      -44.89290000     -35.00300000     -74.12090000
C      -43.53820000     -34.69440000     -73.90460000
C      -42.77350000     -35.55040000     -73.09580000
C      -43.29830000     -36.72060000     -72.53710000
H      -45.06790000     -37.92150000     -72.31840000
H      -45.51310000     -34.27190000     -74.60190000
H      -41.78320000     -35.25780000     -72.89820000
H      -42.74930000     -37.34290000     -71.86090000
C      -42.92050000     -33.44870000     -74.40850000
H      -42.75260000     -33.61010000     -75.49750000
H      -41.92070000     -33.36210000     -73.99350000
C      -46.84780000     -36.46760000     -73.59990000
H      -47.18440000     -36.68650000     -74.67640000
H      -47.02930000     -37.45900000     -73.06020000
S      -43.73390000     -31.78140000     -74.38870000
S      -47.88620000     -35.01860000     -72.94770000
C      -43.85020000     -31.21050000     -72.63760000
H      -42.87080000     -31.39640000     -72.03000000
H      -43.92200000     -30.10260000     -72.63340000
C      -47.20220000     -34.80990000     -71.32130000
H      -46.13980000     -34.60340000     -71.43320000
H      -47.17020000     -35.71950000     -70.72740000
C      -47.78710000     -33.58200000     -70.60700000
H      -47.73940000     -32.81530000     -71.32600000
H      -48.84290000     -33.79230000     -70.41630000
C      -45.03260000     -31.92550000     -71.91570000
H      -44.92610000     -32.95970000     -72.11770000
H      -45.99760000     -31.59760000     -72.41570000
C      -45.00550000     -31.60600000     -70.41090000
C      -44.12130000     -30.69790000     -69.87180000
C      -45.91720000     -32.18540000     -69.43120000
H      -43.50450000     -29.94390000     -70.47220000
C      -45.48550000     -31.80320000     -68.13990000
C      -46.98300000     -33.10480000     -69.39160000
C      -47.35250000     -33.43570000     -68.07510000
S      -44.18570000     -30.61090000     -68.11740000
S      -46.40740000     -32.54010000     -66.87020000
H      -48.06940000     -34.19450000     -67.71540000
