40
Properties=species:S:1:pos:R:3 #=T CELL(abcABC):=T 1.889726e+02=T 90.00000=T Traj:=T positionsangstrom=T Step:=T 0=T Bead:=T pbc="F F F"
C      -44.36330000     -36.07910000     -72.28410000
C      -45.29680000     -35.81730000     -73.26840000
C      -45.03130000     -34.88030000     -74.27040000
C      -43.77830000     -34.22610000     -74.35760000
C      -42.73880000     -34.65930000     -73.47840000
C      -43.07670000     -35.46490000     -72.36400000
H      -44.42370000     -36.77230000     -71.50480000
H      -45.74390000     -34.77860000     -75.04780000
H      -41.80340000     -34.14330000     -73.50590000
H      -42.31940000     -35.62460000     -71.67830000
C      -43.60280000     -32.99390000     -75.15600000
H      -43.82320000     -33.23570000     -76.23130000
H      -42.56670000     -32.64010000     -75.13510000
C      -46.67450000     -36.37360000     -73.22940000
H      -46.98390000     -36.61740000     -74.19040000
H      -46.73660000     -37.25370000     -72.59730000
S      -44.70050000     -31.65690000     -74.53010000
S      -47.91420000     -35.08090000     -72.79470000
C      -43.96060000     -31.61630000     -72.81510000
H      -43.02540000     -32.13160000     -72.86720000
H      -43.71120000     -30.59020000     -72.61090000
C      -47.36290000     -34.85650000     -71.04060000
H      -46.31820000     -35.04800000     -70.96790000
H      -47.91940000     -35.64380000     -70.52720000
C      -47.74880000     -33.47210000     -70.60040000
H      -47.41720000     -32.73950000     -71.33010000
H      -48.78700000     -33.39520000     -70.52620000
C      -45.04000000     -32.23530000     -71.89000000
H      -45.05130000     -33.26760000     -72.05510000
H      -46.05800000     -31.92440000     -72.23130000
C      -44.70680000     -32.03010000     -70.39800000
C      -43.63860000     -31.43520000     -69.86900000
C      -45.66200000     -32.48590000     -69.31680000
H      -42.82830000     -31.33560000     -70.46500000
C      -45.14010000     -32.17550000     -68.06090000
C      -47.04670000     -33.01090000     -69.34140000
C      -47.49630000     -33.22070000     -68.04920000
S      -43.56990000     -31.42850000     -68.08330000
S      -46.27700000     -32.74320000     -66.82920000
H      -48.48380000     -33.54750000     -67.67160000
