40
Properties=species:S:1:pos:R:3 #=T CELL(abcABC):=T 1.889726e+02=T 90.00000=T Traj:=T positionsangstrom=T Step:=T 0=T Bead:=T pbc="F F F"
C      -44.58360000     -36.94200000     -72.78160000
C      -45.39780000     -36.04020000     -73.42220000
C      -44.83860000     -34.82130000     -73.97790000
C      -43.53680000     -34.51890000     -73.64470000
C      -42.76780000     -35.41910000     -72.90700000
C      -43.26930000     -36.66370000     -72.54280000
H      -44.99150000     -37.88160000     -72.46490000
H      -45.40780000     -34.18930000     -74.66530000
H      -41.70630000     -35.13690000     -72.75200000
H      -42.62070000     -37.36910000     -71.96900000
C      -42.86300000     -33.40690000     -74.43080000
H      -42.70370000     -33.76690000     -75.44810000
H      -41.97740000     -33.02990000     -73.86130000
C      -46.83360000     -36.31730000     -73.65480000
H      -47.15260000     -36.26870000     -74.64740000
H      -47.08240000     -37.24620000     -73.24350000
S      -43.85400000     -31.84050000     -74.52550000
S      -47.99390000     -35.23360000     -72.88440000
C      -43.84970000     -31.39350000     -72.75130000
H      -43.05570000     -31.88090000     -72.26170000
H      -43.66190000     -30.33710000     -72.73400000
C      -47.08540000     -34.80860000     -71.24370000
H      -46.03930000     -34.51160000     -71.39460000
H      -47.35380000     -35.71750000     -70.68000000
C      -47.81520000     -33.63860000     -70.60720000
H      -48.08350000     -32.85060000     -71.36370000
H      -48.78430000     -33.86230000     -70.18140000
C      -45.10570000     -31.74220000     -71.94920000
H      -45.42700000     -32.79080000     -72.13080000
H      -46.00060000     -31.22010000     -72.32950000
C      -45.02450000     -31.47350000     -70.44600000
C      -44.09430000     -30.66680000     -69.85770000
C      -45.94630000     -32.10120000     -69.46850000
H      -43.15990000     -30.28600000     -70.33080000
C      -45.49070000     -31.79670000     -68.16450000
C      -47.04230000     -33.06230000     -69.46090000
C      -47.30450000     -33.46600000     -68.14380000
S      -44.14960000     -30.64860000     -68.07370000
S      -46.30970000     -32.65750000     -66.90210000
H      -47.93870000     -34.34440000     -67.95700000
