40
Properties=species:S:1:pos:R:3 #=T CELL(abcABC):=T 1.889726e+02=T 90.00000=T Traj:=T positionsangstrom=T Step:=T 0=T Bead:=T pbc="F F F"
C      -44.05370000     -36.24760000     -72.53840000
C      -45.19240000     -35.87770000     -73.22450000
C      -45.07480000     -34.80480000     -74.15620000
C      -43.85090000     -34.20530000     -74.35990000
C      -42.75110000     -34.44380000     -73.42850000
C      -42.88150000     -35.56860000     -72.58690000
H      -44.14260000     -36.95360000     -71.75910000
H      -45.88480000     -34.41470000     -74.68610000
H      -41.88150000     -33.88050000     -73.52760000
H      -42.10480000     -35.82760000     -71.89870000
C      -43.75760000     -33.01110000     -75.30870000
H      -44.31280000     -33.20470000     -76.19210000
H      -42.72670000     -32.67700000     -75.55820000
C      -46.58590000     -36.47550000     -73.01510000
H      -46.97440000     -37.04260000     -73.93480000
H      -46.60110000     -37.23410000     -72.17740000
S      -44.57110000     -31.44660000     -74.55970000
S      -47.94990000     -35.22240000     -72.74480000
C      -44.11490000     -31.45940000     -72.79400000
H      -43.12550000     -31.83470000     -72.52930000
H      -44.23860000     -30.39860000     -72.36010000
C      -47.38100000     -34.71360000     -71.04760000
H      -46.27180000     -34.54770000     -70.98040000
H      -47.57890000     -35.57110000     -70.34920000
C      -47.98010000     -33.39260000     -70.45820000
H      -47.89050000     -32.60600000     -71.28870000
H      -49.03390000     -33.56010000     -70.19950000
C      -45.13030000     -32.25430000     -71.87510000
H      -45.08570000     -33.33830000     -72.26780000
H      -46.12960000     -31.96890000     -72.11140000
C      -44.77440000     -32.21090000     -70.38390000
C      -43.58250000     -31.69390000     -69.87770000
C      -45.76010000     -32.51600000     -69.36100000
H      -42.80830000     -31.35820000     -70.48900000
C      -45.15520000     -32.31290000     -68.14760000
C      -47.10670000     -32.98110000     -69.26440000
C      -47.47800000     -33.12920000     -67.93950000
S      -43.57530000     -31.53260000     -68.17100000
S      -46.23600000     -32.62940000     -66.80600000
H      -48.39000000     -33.61150000     -67.69660000
