40
Properties=species:S:1:pos:R:3 #=T CELL(abcABC):=T 1.889726e+02=T 90.00000=T Traj:=T positionsangstrom=T Step:=T 0=T Bead:=T pbc="F F F"
C      -44.60320000     -36.80970000     -72.62060000
C      -45.39550000     -35.99410000     -73.42830000
C      -44.78140000     -34.95620000     -74.12890000
C      -43.42180000     -34.61090000     -73.83690000
C      -42.65380000     -35.43950000     -73.02940000
C      -43.28960000     -36.52820000     -72.39770000
H      -45.11530000     -37.53500000     -71.96700000
H      -45.36070000     -34.14070000     -74.65050000
H      -41.59200000     -35.20900000     -72.78340000
H      -42.62880000     -37.22120000     -71.85930000
C      -42.84630000     -33.29760000     -74.36280000
H      -42.47820000     -33.47950000     -75.34550000
H      -41.91720000     -33.01430000     -73.85820000
C      -46.82610000     -36.27790000     -73.76670000
H      -46.93700000     -35.91230000     -74.83700000
H      -47.00540000     -37.43760000     -73.71750000
S      -43.99800000     -31.84720000     -74.42560000
S      -48.14070000     -35.32380000     -72.75140000
C      -43.97010000     -31.27450000     -72.65020000
H      -43.03520000     -31.61570000     -72.15540000
H      -43.99220000     -30.10860000     -72.78110000
C      -47.14170000     -34.82110000     -71.33390000
H      -46.08830000     -34.64640000     -71.60800000
H      -47.07970000     -35.61050000     -70.60750000
C      -47.61030000     -33.45280000     -70.71970000
H      -47.33010000     -32.73760000     -71.59430000
H      -48.71070000     -33.42260000     -70.62000000
C      -45.24780000     -31.69800000     -71.94940000
H      -45.33130000     -32.76660000     -72.23840000
H      -46.03800000     -31.07800000     -72.30890000
C      -45.03350000     -31.51590000     -70.44940000
C      -44.21820000     -30.55910000     -69.92630000
C      -45.74400000     -32.21860000     -69.41330000
H      -43.46880000     -29.99880000     -70.43120000
C      -45.30590000     -31.96690000     -68.12720000
C      -46.91780000     -33.05810000     -69.45530000
C      -47.31300000     -33.42860000     -68.16220000
S      -44.07300000     -30.75540000     -68.15670000
S      -46.31810000     -32.68390000     -66.91510000
H      -48.26230000     -33.85140000     -67.79050000
