40
Properties=species:S:1:pos:R:3 #=T CELL(abcABC):=T 1.889726e+02=T 90.00000=T Traj:=T positionsangstrom=T Step:=T 0=T Bead:=T pbc="F F F"
C      -44.56080000     -37.04680000     -72.75160000
C      -45.37500000     -36.15540000     -73.50890000
C      -44.87760000     -35.01890000     -74.10970000
C      -43.51700000     -34.74260000     -73.99860000
C      -42.70650000     -35.58900000     -73.18510000
C      -43.20580000     -36.68260000     -72.49860000
H      -45.03600000     -37.88410000     -72.19080000
H      -45.52900000     -34.40310000     -74.71750000
H      -41.65300000     -35.30550000     -72.96470000
H      -42.69120000     -37.35160000     -71.79600000
C      -42.84820000     -33.48480000     -74.52810000
H      -42.56260000     -33.71810000     -75.58930000
H      -41.83590000     -33.44300000     -73.99050000
C      -46.91020000     -36.34970000     -73.60850000
H      -47.06750000     -36.51730000     -74.63910000
H      -47.07090000     -37.28720000     -73.11600000
S      -43.83890000     -31.93590000     -74.49690000
S      -47.95260000     -34.90020000     -73.01880000
C      -43.81520000     -31.36120000     -72.69900000
H      -42.85560000     -31.41250000     -72.36480000
H      -44.09330000     -30.30260000     -72.84750000
C      -47.07500000     -34.71900000     -71.42150000
H      -46.02470000     -34.62030000     -71.67280000
H      -47.26090000     -35.56940000     -70.77940000
C      -47.65990000     -33.49310000     -70.69660000
H      -47.74870000     -32.62840000     -71.35700000
H      -48.63320000     -33.76460000     -70.40160000
C      -44.99350000     -32.02160000     -71.81380000
H      -44.92150000     -33.14920000     -71.96120000
H      -45.93830000     -31.63700000     -72.18490000
C      -44.88940000     -31.65480000     -70.28020000
C      -44.06070000     -30.72150000     -69.76050000
C      -45.80620000     -32.25390000     -69.29850000
H      -43.39580000     -30.12100000     -70.38830000
C      -45.44730000     -31.88040000     -68.00790000
C      -46.99090000     -33.06610000     -69.38470000
C      -47.51450000     -33.27240000     -68.09020000
S      -44.19610000     -30.59040000     -67.96230000
S      -46.55520000     -32.48540000     -66.82560000
H      -48.42610000     -33.75700000     -67.82470000
