40
Properties=species:S:1:pos:R:3 #=T CELL(abcABC):=T 1.889726e+02=T 90.00000=T Traj:=T positionsangstrom=T Step:=T 0=T Bead:=T pbc="F F F"
C      -45.48390000     -36.59810000     -73.04070000
C      -45.70650000     -35.39220000     -73.72200000
C      -44.61530000     -34.63620000     -74.11280000
C      -43.28040000     -34.89880000     -73.75020000
C      -43.06750000     -36.08560000     -73.04370000
C      -44.16990000     -36.94950000     -72.72650000
H      -46.31880000     -37.28830000     -72.87690000
H      -44.76940000     -33.78390000     -74.76590000
H      -42.11820000     -36.22840000     -72.64780000
H      -44.03370000     -37.77910000     -72.08560000
C      -42.13570000     -34.02080000     -74.16160000
H      -42.04190000     -33.99310000     -75.26470000
H      -41.26240000     -34.40150000     -73.64700000
C      -47.12630000     -35.07620000     -74.30390000
H      -47.03230000     -34.17610000     -75.00080000
H      -47.36030000     -35.94940000     -75.04950000
S      -42.39630000     -32.24690000     -73.81740000
S      -48.41840000     -34.89570000     -73.05010000
C      -42.81170000     -32.19370000     -71.98520000
H      -42.08090000     -32.66820000     -71.40360000
H      -42.58780000     -31.13940000     -71.85720000
C      -47.70230000     -33.73460000     -71.79740000
H      -48.65290000     -33.20400000     -71.44090000
H      -47.21500000     -32.95350000     -72.35240000
C      -46.95910000     -34.39700000     -70.60120000
H      -47.72240000     -35.10700000     -70.38790000
H      -46.06190000     -34.88220000     -70.74120000
C      -44.22680000     -32.54660000     -71.65340000
H      -44.48950000     -33.61060000     -71.72940000
H      -44.89000000     -32.01580000     -72.31840000
C      -44.60350000     -31.98430000     -70.19190000
C      -43.98630000     -30.93970000     -69.55150000
C      -45.77970000     -32.37280000     -69.42220000
H      -42.99840000     -30.60420000     -69.80490000
C      -45.89150000     -31.63290000     -68.20240000
C      -46.79330000     -33.36630000     -69.42830000
C      -47.64490000     -33.38340000     -68.39180000
S      -44.72820000     -30.35180000     -68.09680000
S      -47.18650000     -32.12490000     -67.14710000
H      -48.37860000     -34.11370000     -68.23520000
