40
Properties=species:S:1:pos:R:3 #=T CELL(abcABC):=T 1.889726e+02=T 90.00000=T Traj:=T positionsangstrom=T Step:=T 0=T Bead:=T pbc="F F F"
C      -45.46020000     -34.30300000     -74.85550000
C      -45.31800000     -32.96900000     -74.40850000
C      -46.53660000     -32.30930000     -74.00270000
C      -47.71920000     -33.04160000     -73.80510000
C      -47.85190000     -34.34230000     -74.25490000
C      -46.70450000     -34.97520000     -74.81620000
H      -44.60760000     -34.88130000     -75.16120000
H      -46.39710000     -31.33860000     -73.52600000
H      -48.84130000     -34.74610000     -74.17110000
H      -46.78290000     -35.94860000     -75.13240000
C      -48.95570000     -32.35070000     -73.16560000
H      -49.66640000     -33.08950000     -72.80290000
H      -49.52320000     -31.74390000     -73.88690000
C      -43.97760000     -32.26760000     -74.55460000
H      -43.78450000     -31.87000000     -75.52630000
H      -43.92300000     -31.34370000     -73.88620000
S      -48.46660000     -31.19840000     -71.91290000
S      -42.52500000     -33.23940000     -74.02550000
C      -47.95840000     -32.27160000     -70.55150000
H      -47.94910000     -31.66350000     -69.67830000
H      -48.57920000     -33.13690000     -70.39020000
C      -42.99110000     -33.80580000     -72.38240000
H      -42.16520000     -34.43640000     -72.06890000
H      -43.89030000     -34.41680000     -72.39220000
C      -43.12840000     -32.72640000     -71.33400000
H      -42.27730000     -32.04870000     -71.41310000
H      -43.95690000     -32.02790000     -71.62900000
C      -46.49250000     -32.82710000     -70.74290000
H      -45.84680000     -32.05240000     -71.09760000
H      -46.57920000     -33.55520000     -71.49710000
C      -45.89660000     -33.46090000     -69.47250000
C      -46.68190000     -33.91400000     -68.41040000
C      -44.46760000     -33.60220000     -69.22310000
H      -47.77170000     -34.09650000     -68.47810000
C      -44.29380000     -34.25430000     -67.92770000
C      -43.23760000     -33.18960000     -69.93550000
C      -42.16870000     -33.85770000     -69.37830000
S      -45.72650000     -34.69440000     -67.11840000
S      -42.63760000     -34.68650000     -67.85330000
H      -41.19290000     -33.96530000     -69.73520000
