40
Properties=species:S:1:pos:R:3 #=T CELL(abcABC):=T 1.889726e+02=T 90.00000=T Traj:=T positionsangstrom=T Step:=T 0=T Bead:=T pbc="F F F"
C      -44.97300000     -36.45990000     -73.26460000
C      -45.34090000     -35.37520000     -74.10280000
C      -44.41440000     -34.32520000     -74.28000000
C      -43.13200000     -34.36250000     -73.64870000
C      -42.81300000     -35.42630000     -72.77110000
C      -43.74330000     -36.45990000     -72.64100000
H      -45.69260000     -37.28560000     -73.00090000
H      -44.77550000     -33.56240000     -74.98370000
H      -41.76870000     -35.49750000     -72.42280000
H      -43.27830000     -37.24040000     -72.02420000
C      -42.10860000     -33.31680000     -73.86370000
H      -41.98810000     -33.08170000     -74.92090000
H      -41.26160000     -33.57910000     -73.26030000
C      -46.72380000     -35.34440000     -74.71800000
H      -46.88880000     -34.50770000     -75.31190000
H      -46.96460000     -36.20450000     -75.30600000
S      -42.54340000     -31.62380000     -73.25530000
S      -47.99080000     -35.37300000     -73.42950000
C      -42.52820000     -31.90360000     -71.41880000
H      -41.68550000     -32.48530000     -71.03610000
H      -42.34640000     -30.89150000     -71.15460000
C      -47.57030000     -34.02720000     -72.25380000
H      -48.47520000     -33.56740000     -71.78470000
H      -47.14720000     -33.20690000     -72.84530000
C      -46.73850000     -34.51180000     -71.08220000
H      -47.05460000     -35.48050000     -70.81760000
H      -45.68520000     -34.53630000     -71.35230000
C      -43.86960000     -32.52980000     -71.02190000
H      -43.71790000     -33.57090000     -70.97960000
H      -44.58650000     -32.32580000     -71.76340000
C      -44.57660000     -32.01700000     -69.76530000
C      -44.21560000     -30.94360000     -69.01040000
C      -45.82970000     -32.57320000     -69.37700000
H      -43.32560000     -30.33270000     -69.01860000
C      -46.38630000     -31.86940000     -68.22640000
C      -46.78670000     -33.61310000     -69.81580000
C      -47.85310000     -33.69480000     -68.98100000
S      -45.28380000     -30.65110000     -67.67730000
S      -47.94790000     -32.58980000     -67.70600000
H      -48.77250000     -34.20490000     -69.14800000
