40
Properties=species:S:1:pos:R:3 #=T CELL(abcABC):=T 1.889726e+02=T 90.00000=T Traj:=T positionsangstrom=T Step:=T 0=T Bead:=T pbc="F F F"
C      -44.04410000     -36.63530000     -72.53970000
C      -45.06740000     -35.92050000     -73.19500000
C      -44.71590000     -34.91280000     -74.07410000
C      -43.40000000     -34.45640000     -74.15610000
C      -42.35740000     -35.14110000     -73.42490000
C      -42.75120000     -36.23780000     -72.68680000
H      -44.33990000     -37.46220000     -71.95180000
H      -45.43230000     -34.40160000     -74.67680000
H      -41.37380000     -34.84980000     -73.57880000
H      -41.96700000     -36.66400000     -72.09270000
C      -43.10630000     -33.26440000     -75.04730000
H      -43.63780000     -33.31990000     -76.04620000
H      -42.09090000     -33.15320000     -75.32840000
C      -46.51450000     -36.45530000     -72.92910000
H      -46.93310000     -37.11040000     -73.66000000
H      -46.46970000     -36.95960000     -71.91450000
S      -43.95650000     -31.73140000     -74.34800000
S      -47.92750000     -35.30470000     -72.67770000
C      -43.52940000     -31.68970000     -72.55800000
H      -42.78540000     -32.56180000     -72.41860000
H      -42.93500000     -30.81420000     -72.32290000
C      -47.64370000     -34.54260000     -70.99850000
H      -46.58050000     -34.73120000     -70.75980000
H      -48.33660000     -35.13880000     -70.24720000
C      -47.99100000     -33.01060000     -70.99060000
H      -47.47170000     -32.50570000     -71.75570000
H      -49.03770000     -32.80680000     -71.02320000
C      -44.78240000     -31.86080000     -71.79900000
H      -45.22380000     -32.84360000     -72.14130000
H      -45.36520000     -30.96320000     -72.10590000
C      -44.74640000     -31.86740000     -70.31070000
C      -43.66290000     -31.60170000     -69.57280000
C      -45.92080000     -32.24510000     -69.52460000
H      -42.67230000     -31.46920000     -69.98030000
C      -45.63630000     -32.10580000     -68.19380000
C      -47.36460000     -32.46450000     -69.74680000
C      -48.08910000     -32.38570000     -68.57840000
S      -43.96010000     -31.75720000     -67.83490000
S      -47.07590000     -32.21640000     -67.19330000
H      -49.17500000     -32.55540000     -68.57770000
