40
Properties=species:S:1:pos:R:3 #=T CELL(abcABC):=T 1.889726e+02=T 90.00000=T Traj:=T positionsangstrom=T Step:=T 0=T Bead:=T pbc="F F F"
C      -44.46510000     -36.90740000     -72.77380000
C      -45.31560000     -36.10200000     -73.48810000
C      -44.82410000     -34.98750000     -74.17330000
C      -43.48290000     -34.68340000     -73.94560000
C      -42.64340000     -35.42580000     -73.15390000
C      -43.13830000     -36.62940000     -72.61310000
H      -45.01550000     -37.85490000     -72.45250000
H      -45.43880000     -34.40650000     -74.85810000
H      -41.59370000     -35.11230000     -73.03170000
H      -42.55150000     -37.27280000     -71.99840000
C      -42.92440000     -33.43590000     -74.58970000
H      -42.92260000     -33.39310000     -75.70070000
H      -41.86580000     -33.37540000     -74.31070000
C      -46.73930000     -36.52850000     -73.53750000
H      -47.27340000     -36.90260000     -74.40360000
H      -46.90090000     -37.19330000     -72.65680000
S      -43.84220000     -31.87640000     -74.38100000
S      -47.85620000     -35.01240000     -73.01890000
C      -43.74510000     -31.50800000     -72.56910000
H      -42.88730000     -31.98440000     -72.15260000
H      -43.57930000     -30.41390000     -72.36910000
C      -47.46930000     -34.77260000     -71.24850000
H      -46.44070000     -35.07090000     -71.01360000
H      -48.10910000     -35.37440000     -70.64980000
C      -47.70280000     -33.31110000     -70.85130000
H      -47.26290000     -32.70240000     -71.55790000
H      -48.74370000     -33.19750000     -70.86740000
C      -44.97580000     -31.97660000     -71.79320000
H      -44.97280000     -33.07300000     -72.00070000
H      -45.82140000     -31.44400000     -72.15030000
C      -44.91210000     -31.73680000     -70.28430000
C      -43.92170000     -31.05160000     -69.70470000
C      -45.84800000     -32.21940000     -69.33360000
H      -43.01660000     -30.70440000     -70.27220000
C      -45.52600000     -31.78820000     -68.01900000
C      -47.10340000     -32.91370000     -69.45810000
C      -47.73710000     -32.97710000     -68.20500000
S      -44.03890000     -30.88520000     -67.97770000
S      -46.71140000     -32.34560000     -66.90160000
H      -48.71390000     -33.44640000     -67.93320000
