40
Properties=species:S:1:pos:R:3 #=T CELL(abcABC):=T 1.889726e+02=T 90.00000=T Traj:=T positionsangstrom=T Step:=T 0=T Bead:=T pbc="F F F"
C      -45.19530000     -36.35590000     -73.20650000
C      -45.38780000     -35.26070000     -74.08790000
C      -44.34290000     -34.35120000     -74.29080000
C      -43.01130000     -34.49980000     -73.69590000
C      -42.84850000     -35.60770000     -72.80940000
C      -43.92220000     -36.47690000     -72.54320000
H      -45.88980000     -37.13700000     -73.09520000
H      -44.63710000     -33.43220000     -74.79200000
H      -41.98800000     -35.69690000     -72.24040000
H      -43.87320000     -37.24470000     -71.82360000
C      -41.94690000     -33.46150000     -73.92430000
H      -41.66650000     -33.29730000     -74.99260000
H      -41.00220000     -33.75250000     -73.45640000
C      -46.80960000     -35.03700000     -74.64990000
H      -46.74040000     -34.06820000     -75.07440000
H      -47.00040000     -35.73760000     -75.42760000
S      -42.45460000     -31.78120000     -73.40180000
S      -48.18960000     -35.10150000     -73.41410000
C      -42.63970000     -31.79840000     -71.56870000
H      -41.70460000     -31.99940000     -71.27510000
H      -42.96110000     -30.82820000     -71.30700000
C      -47.75200000     -33.89500000     -72.08270000
H      -48.71650000     -33.69600000     -71.65080000
H      -47.26750000     -33.00650000     -72.56100000
C      -46.81150000     -34.46610000     -70.96720000
H      -47.21540000     -35.46200000     -70.69870000
H      -45.84830000     -34.70420000     -71.37470000
C      -43.83210000     -32.77850000     -71.03880000
H      -43.36400000     -33.77560000     -70.81230000
H      -44.44350000     -33.07440000     -71.91430000
C      -44.56090000     -32.18950000     -69.82890000
C      -44.05670000     -31.23990000     -68.97490000
C      -45.81260000     -32.69450000     -69.35570000
H      -43.12730000     -30.66380000     -69.21730000
C      -46.26830000     -31.99210000     -68.24480000
C      -46.85810000     -33.59000000     -69.77390000
C      -47.85710000     -33.55430000     -68.88070000
S      -45.19130000     -30.78820000     -67.70940000
S      -47.79090000     -32.37240000     -67.67570000
H      -48.71050000     -34.26780000     -68.98110000
