40
Properties=species:S:1:pos:R:3 #=T CELL(abcABC):=T 1.889726e+02=T 90.00000=T Traj:=T positionsangstrom=T Step:=T 0=T Bead:=T pbc="F F F"
C      -44.70040000     -36.47160000     -73.30260000
C      -45.13850000     -35.32090000     -73.99980000
C      -44.25200000     -34.22480000     -74.12620000
C      -42.92830000     -34.35520000     -73.66670000
C      -42.45830000     -35.50750000     -73.01890000
C      -43.33580000     -36.57760000     -72.89440000
H      -45.24630000     -37.38830000     -73.13170000
H      -44.49900000     -33.34650000     -74.73310000
H      -41.30650000     -35.58610000     -72.74790000
H      -43.00690000     -37.53200000     -72.46300000
C      -41.91340000     -33.25090000     -73.88280000
H      -41.65110000     -33.19020000     -74.93250000
H      -41.02760000     -33.52480000     -73.27530000
C      -46.52340000     -35.18500000     -74.57620000
H      -46.61820000     -34.29640000     -75.12930000
H      -46.74120000     -35.96010000     -75.28140000
S      -42.34060000     -31.50600000     -73.26150000
S      -47.92710000     -35.27150000     -73.38010000
C      -42.94230000     -31.72440000     -71.49650000
H      -42.10130000     -32.09230000     -70.84990000
H      -43.23530000     -30.63340000     -71.26640000
C      -47.51150000     -34.00580000     -72.13660000
H      -48.42200000     -33.49710000     -71.95200000
H      -46.93550000     -33.20030000     -72.55170000
C      -46.83350000     -34.66760000     -70.91640000
H      -47.34260000     -35.56010000     -70.69060000
H      -45.84300000     -34.95790000     -71.18600000
C      -44.15060000     -32.51430000     -71.19220000
H      -43.97540000     -33.60120000     -71.05050000
H      -44.86940000     -32.35770000     -71.93680000
C      -44.83520000     -32.11320000     -69.87660000
C      -44.41480000     -31.01610000     -69.10550000
C      -46.08570000     -32.66550000     -69.36630000
H      -43.52920000     -30.47580000     -69.19470000
C      -46.50040000     -31.98200000     -68.23600000
C      -46.93720000     -33.73500000     -69.72100000
C      -48.07880000     -33.75810000     -68.93450000
S      -45.45510000     -30.72880000     -67.74310000
S      -48.07620000     -32.60470000     -67.59980000
H      -48.77160000     -34.55630000     -68.95390000
