40
Properties=species:S:1:pos:R:3 #=T CELL(abcABC):=T 1.889726e+02=T 90.00000=T Traj:=T positionsangstrom=T Step:=T 0=T Bead:=T pbc="F F F"
C      -44.36810000     -36.74310000     -74.10080000
C      -44.84310000     -35.43550000     -74.16470000
C      -44.03240000     -34.30640000     -73.82050000
C      -42.79650000     -34.54450000     -73.22100000
C      -42.36520000     -35.88620000     -73.08290000
C      -43.14710000     -36.97630000     -73.44460000
H      -44.84340000     -37.57060000     -74.69730000
H      -44.53730000     -33.34620000     -73.83760000
H      -41.39250000     -36.00580000     -72.48600000
H      -42.84420000     -38.00580000     -73.29920000
C      -41.85440000     -33.46470000     -72.66930000
H      -40.85940000     -33.65250000     -73.03420000
H      -41.77600000     -33.58040000     -71.58460000
C      -46.12810000     -35.22900000     -74.86750000
H      -46.09210000     -34.27370000     -75.34020000
H      -46.29610000     -35.96100000     -75.57970000
S      -42.32440000     -31.67820000     -72.94780000
S      -47.59860000     -35.27260000     -73.70770000
C      -43.05250000     -31.27390000     -71.28010000
H      -42.23310000     -31.44320000     -70.56310000
H      -43.35710000     -30.24420000     -71.27520000
C      -47.49090000     -33.91420000     -72.42450000
H      -48.55010000     -33.70800000     -72.19880000
H      -47.03880000     -33.02650000     -72.79870000
C      -46.69470000     -34.34090000     -71.18310000
H      -46.99650000     -35.38410000     -71.01600000
H      -45.66650000     -34.32870000     -71.38740000
C      -44.22770000     -32.17060000     -71.00670000
H      -43.96870000     -33.20350000     -70.80750000
H      -44.86430000     -32.23090000     -71.89840000
C      -45.02000000     -31.76070000     -69.80200000
C      -44.63150000     -30.79360000     -68.82720000
C      -46.23500000     -32.47200000     -69.39170000
H      -43.76120000     -30.18280000     -68.76800000
C      -46.80770000     -31.90900000     -68.20490000
C      -47.01790000     -33.60640000     -69.92760000
C      -48.15120000     -33.77460000     -69.23680000
S      -45.86530000     -30.61460000     -67.51820000
S      -48.30370000     -32.75570000     -67.77470000
H      -48.77630000     -34.56960000     -69.43870000
