40
Properties=species:S:1:pos:R:3 #=T CELL(abcABC):=T 1.889726e+02=T 90.00000=T Traj:=T positionsangstrom=T Step:=T 0=T Bead:=T pbc="F F F"
C      -44.56090000     -36.59130000     -73.89910000
C      -44.82420000     -35.20930000     -74.18210000
C      -43.93660000     -34.26200000     -73.74430000
C      -42.72640000     -34.62270000     -73.11660000
C      -42.41450000     -35.96290000     -72.91030000
C      -43.35620000     -36.90400000     -73.30870000
H      -45.25550000     -37.33950000     -74.05870000
H      -44.17260000     -33.22660000     -74.02560000
H      -41.50350000     -36.24910000     -72.33380000
H      -43.08820000     -37.95300000     -73.12890000
C      -41.75410000     -33.52780000     -72.60780000
H      -40.84130000     -33.66040000     -73.25200000
H      -41.52420000     -33.79660000     -71.57100000
C      -46.10720000     -34.71160000     -74.83430000
H      -46.02180000     -33.71350000     -75.16170000
H      -46.41820000     -35.35060000     -75.67460000
S      -42.14500000     -31.80930000     -72.96900000
S      -47.56530000     -34.96690000     -73.69170000
C      -43.13090000     -31.24380000     -71.38940000
H      -42.58330000     -30.87520000     -70.55490000
H      -43.66610000     -30.42550000     -71.80190000
C      -47.23040000     -33.83800000     -72.33200000
H      -48.10090000     -33.39220000     -71.93810000
H      -46.56690000     -33.08800000     -72.68080000
C      -46.51570000     -34.58920000     -71.06670000
H      -46.78200000     -35.63920000     -71.02690000
H      -45.37260000     -34.62130000     -71.24910000
C      -44.04260000     -32.38210000     -70.89700000
H      -43.47610000     -33.25440000     -70.54200000
H      -44.64430000     -32.68680000     -71.79920000
C      -45.07940000     -31.89220000     -69.84410000
C      -44.91180000     -30.76490000     -69.04510000
C      -46.25270000     -32.64080000     -69.40450000
H      -44.06980000     -30.14270000     -69.32580000
C      -46.89450000     -32.01500000     -68.34530000
C      -46.89570000     -33.87970000     -69.80080000
C      -48.05700000     -34.10320000     -69.11220000
S      -46.17120000     -30.46080000     -67.84100000
S      -48.30700000     -32.89390000     -67.77680000
H      -48.75750000     -34.93520000     -69.10020000
