40
Properties=species:S:1:pos:R:3 #=T CELL(abcABC):=T 1.889726e+02=T 90.00000=T Traj:=T positionsangstrom=T Step:=T 0=T Bead:=T pbc="F F F"
C      -44.49420000     -36.68160000     -73.88450000
C      -44.82700000     -35.31630000     -74.17360000
C      -43.98280000     -34.21520000     -73.93310000
C      -42.72780000     -34.47190000     -73.36380000
C      -42.36070000     -35.82810000     -73.13260000
C      -43.20300000     -36.93370000     -73.32870000
H      -45.20780000     -37.44020000     -74.11510000
H      -44.41500000     -33.24710000     -74.08340000
H      -41.47370000     -36.05890000     -72.70090000
H      -42.85690000     -37.95880000     -73.08560000
C      -41.71080000     -33.42880000     -73.13670000
H      -40.95240000     -33.56680000     -73.89650000
H      -41.20390000     -33.58120000     -72.17570000
C      -46.15970000     -35.00730000     -74.73440000
H      -46.21200000     -34.03840000     -75.22450000
H      -46.30250000     -35.63470000     -75.59550000
S      -42.29060000     -31.67420000     -73.12840000
S      -47.53840000     -35.30430000     -73.55080000
C      -43.24140000     -31.36470000     -71.54890000
H      -42.65460000     -31.60590000     -70.66140000
H      -43.46870000     -30.28610000     -71.49900000
C      -47.49240000     -33.89680000     -72.31090000
H      -48.47220000     -33.42310000     -72.25400000
H      -46.97930000     -33.02210000     -72.78570000
C      -47.07350000     -34.50630000     -70.94990000
H      -47.77100000     -35.27220000     -70.76060000
H      -46.11850000     -35.04820000     -70.98210000
C      -44.59490000     -32.14010000     -71.29830000
H      -44.46760000     -33.20840000     -71.37290000
H      -45.31430000     -31.85080000     -71.98280000
C      -45.10940000     -31.83970000     -69.92190000
C      -44.54630000     -31.03360000     -68.96040000
C      -46.31730000     -32.49200000     -69.37050000
H      -43.68590000     -30.25610000     -69.10870000
C      -46.71900000     -31.97160000     -68.15110000
C      -47.20940000     -33.55550000     -69.82250000
C      -48.25810000     -33.64900000     -68.96500000
S      -45.51970000     -30.85270000     -67.52340000
S      -48.22100000     -32.61600000     -67.58280000
H      -49.04520000     -34.42030000     -68.97080000
