40
Properties=species:S:1:pos:R:3 #=T CELL(abcABC):=T 1.889726e+02=T 90.00000=T Traj:=T positionsangstrom=T Step:=T 0=T Bead:=T pbc="F F F"
C      -44.37390000     -36.73320000     -74.00210000
C      -44.80630000     -35.41970000     -74.08900000
C      -44.04250000     -34.27280000     -73.78850000
C      -42.77540000     -34.49980000     -73.28190000
C      -42.37680000     -35.80730000     -73.03080000
C      -43.10460000     -36.91990000     -73.45720000
H      -45.16950000     -37.48440000     -74.03080000
H      -44.42770000     -33.28280000     -74.11890000
H      -41.37480000     -36.01400000     -72.67370000
H      -42.68000000     -37.96220000     -73.40820000
C      -41.79760000     -33.44440000     -72.80170000
H      -40.89040000     -33.43900000     -73.48280000
H      -41.48660000     -33.65430000     -71.78670000
C      -46.16190000     -35.16980000     -74.68310000
H      -46.25770000     -34.08440000     -75.06790000
H      -46.26080000     -35.88190000     -75.52570000
S      -42.33450000     -31.69960000     -72.98460000
S      -47.70870000     -35.35990000     -73.70140000
C      -43.03050000     -31.35330000     -71.27950000
H      -42.16720000     -31.73540000     -70.68280000
H      -43.03300000     -30.30380000     -71.04600000
C      -47.39780000     -33.95780000     -72.53960000
H      -48.25630000     -33.28150000     -72.43250000
H      -46.58910000     -33.40100000     -73.06770000
C      -46.89030000     -34.34690000     -71.15060000
H      -47.28130000     -35.39210000     -70.89470000
H      -45.76860000     -34.38380000     -71.19240000
C      -44.40780000     -31.99650000     -71.18250000
H      -44.27360000     -33.13160000     -71.30510000
H      -44.97440000     -31.66890000     -72.11080000
C      -45.13060000     -31.76460000     -69.89140000
C      -44.60840000     -30.90670000     -68.91220000
C      -46.28830000     -32.45260000     -69.43010000
H      -43.81610000     -30.15040000     -68.88170000
C      -46.71030000     -32.01490000     -68.19410000
C      -47.16660000     -33.45710000     -69.94810000
C      -48.26480000     -33.61270000     -69.15440000
S      -45.66640000     -30.82400000     -67.51290000
S      -48.20910000     -32.65060000     -67.66040000
H      -49.05320000     -34.31370000     -69.21650000
