40
Properties=species:S:1:pos:R:3 #=T CELL(abcABC):=T 1.889726e+02=T 90.00000=T Traj:=T positionsangstrom=T Step:=T 0=T Bead:=T pbc="F F F"
C      -44.50620000     -36.50650000     -73.90000000
C      -44.82420000     -35.16860000     -74.25540000
C      -43.91320000     -34.16750000     -73.80310000
C      -42.75930000     -34.47890000     -73.05210000
C      -42.50370000     -35.90710000     -72.72200000
C      -43.41280000     -36.84270000     -73.11110000
H      -45.20610000     -37.30180000     -74.20950000
H      -44.07970000     -33.07870000     -73.97790000
H      -41.61610000     -36.15910000     -72.24910000
H      -43.20320000     -37.96950000     -72.97330000
C      -41.65480000     -33.58210000     -72.59320000
H      -40.61880000     -33.75770000     -73.00710000
H      -41.40790000     -33.70240000     -71.57800000
C      -46.14500000     -34.90450000     -74.94490000
H      -46.17260000     -33.85180000     -75.32900000
H      -46.39440000     -35.55990000     -75.77660000
S      -41.99880000     -31.74680000     -72.70980000
S      -47.62860000     -34.90270000     -73.78450000
C      -43.09020000     -31.37470000     -71.31460000
H      -42.41930000     -31.18010000     -70.42560000
H      -43.51880000     -30.37080000     -71.61960000
C      -47.21830000     -33.90850000     -72.29090000
H      -48.19570000     -33.38460000     -72.05910000
H      -46.53000000     -33.03180000     -72.49750000
C      -46.61530000     -34.76700000     -71.14830000
H      -47.20250000     -35.69130000     -71.09200000
H      -45.53780000     -35.02330000     -71.27000000
C      -44.20540000     -32.34960000     -70.98270000
H      -43.65510000     -33.18960000     -70.63300000
H      -44.76330000     -32.72770000     -71.83480000
C      -45.12570000     -31.88410000     -69.89770000
C      -45.00960000     -30.69230000     -69.22450000
C      -46.24900000     -32.67370000     -69.38160000
H      -44.18670000     -29.97480000     -69.44610000
C      -46.88630000     -32.02720000     -68.37090000
C      -46.85560000     -33.93710000     -69.81090000
C      -47.95760000     -34.20970000     -69.05840000
S      -46.20450000     -30.46090000     -67.98070000
S      -48.24880000     -32.90850000     -67.80340000
H      -48.69140000     -35.07930000     -68.98970000
