40
Properties=species:S:1:pos:R:3 #=T CELL(abcABC):=T 1.889726e+02=T 90.00000=T Traj:=T positionsangstrom=T Step:=T 0=T Bead:=T pbc="F F F"
C      -44.52090000     -36.53060000     -73.80260000
C      -44.55950000     -35.16730000     -74.19530000
C      -43.46880000     -34.34900000     -73.91730000
C      -42.46760000     -34.76180000     -73.02200000
C      -42.53140000     -36.09000000     -72.53750000
C      -43.57340000     -36.97250000     -72.91700000
H      -45.42390000     -37.05570000     -74.02730000
H      -43.43390000     -33.32480000     -74.23740000
H      -41.83170000     -36.43590000     -71.83900000
H      -43.51540000     -38.00660000     -72.64150000
C      -41.38530000     -33.80580000     -72.66270000
H      -40.63570000     -33.65320000     -73.41600000
H      -40.78610000     -34.14290000     -71.81350000
C      -45.71510000     -34.69090000     -74.99550000
H      -45.51750000     -33.70180000     -75.33800000
H      -45.86750000     -35.15510000     -75.95080000
S      -41.94390000     -32.05760000     -72.26870000
S      -47.36940000     -34.96040000     -74.14960000
C      -43.16520000     -32.25490000     -70.75390000
H      -43.41180000     -33.28950000     -70.79280000
H      -42.59290000     -32.04310000     -69.84740000
C      -47.47660000     -33.88190000     -72.52280000
H      -48.37210000     -34.19010000     -72.00370000
H      -47.62810000     -32.86830000     -72.90110000
C      -46.37830000     -34.10960000     -71.49470000
H      -46.24300000     -35.21080000     -71.40680000
H      -45.42950000     -33.78530000     -71.68790000
C      -44.29960000     -31.31880000     -71.00680000
H      -44.82360000     -31.56520000     -71.92180000
H      -43.81580000     -30.34760000     -71.11430000
C      -45.34180000     -31.28500000     -69.84350000
C      -45.51770000     -30.17040000     -69.04430000
C      -46.33530000     -32.34460000     -69.51850000
H      -44.92550000     -29.28240000     -69.00130000
C      -47.10390000     -32.01640000     -68.37420000
C      -46.82300000     -33.54810000     -70.18270000
C      -47.80140000     -34.14890000     -69.46900000
S      -46.72190000     -30.48550000     -67.67420000
S      -48.25310000     -33.29620000     -68.01910000
H      -48.11100000     -35.19860000     -69.59130000
