40
Properties=species:S:1:pos:R:3 #=T CELL(abcABC):=T 1.889726e+02=T 90.00000=T Traj:=T positionsangstrom=T Step:=T 0=T Bead:=T pbc="F F F"
C      -44.54620000     -36.44190000     -73.54100000
C      -44.66360000     -35.15120000     -74.00240000
C      -43.66790000     -34.21440000     -73.67110000
C      -42.53530000     -34.57930000     -72.89250000
C      -42.34490000     -35.95190000     -72.58980000
C      -43.39940000     -36.85570000     -72.78460000
H      -45.30260000     -37.17590000     -73.61010000
H      -43.81800000     -33.18150000     -73.97590000
H      -41.45910000     -36.22290000     -71.97560000
H      -43.29600000     -37.86740000     -72.49930000
C      -41.36050000     -33.48510000     -72.63860000
H      -40.58900000     -33.46770000     -73.49000000
H      -40.76090000     -33.90370000     -71.81550000
C      -45.79490000     -34.57390000     -74.76380000
H      -45.73050000     -33.45820000     -74.74580000
H      -45.69500000     -34.66240000     -75.89400000
S      -41.83570000     -31.74400000     -72.29760000
S      -47.50330000     -35.09490000     -74.18760000
C      -43.08170000     -31.78180000     -70.94000000
H      -43.03940000     -32.69400000     -70.30760000
H      -42.70140000     -30.95740000     -70.36670000
C      -47.84020000     -34.17050000     -72.61890000
H      -48.83640000     -34.56180000     -72.38140000
H      -47.96880000     -33.09660000     -72.76010000
C      -46.85640000     -34.49410000     -71.40170000
H      -46.89470000     -35.53250000     -71.20150000
H      -45.79350000     -34.36270000     -71.70210000
C      -44.58440000     -31.68790000     -71.42110000
H      -44.81470000     -32.56390000     -71.96160000
H      -44.77020000     -30.87240000     -72.08510000
C      -45.45050000     -31.56210000     -70.15550000
C      -45.28950000     -30.44500000     -69.33170000
C      -46.42750000     -32.53710000     -69.70550000
H      -44.48900000     -29.73960000     -69.47610000
C      -46.86580000     -32.15030000     -68.42400000
C      -47.15940000     -33.74250000     -70.11040000
C      -48.11520000     -34.13160000     -69.22050000
S      -46.16270000     -30.62590000     -67.87450000
S      -48.15080000     -33.13910000     -67.77050000
H      -48.54220000     -35.09180000     -69.25670000
