40
Properties=species:S:1:pos:R:3 #=T CELL(abcABC):=T 1.889726e+02=T 90.00000=T Traj:=T positionsangstrom=T Step:=T 0=T Bead:=T pbc="F F F"
C      -47.32490000     -35.90390000     -69.27490000
C      -46.79190000     -34.63170000     -69.59410000
C      -47.06300000     -34.14900000     -70.86110000
C      -47.71160000     -34.90360000     -71.85170000
C      -48.23400000     -36.18720000     -71.53680000
C      -48.03810000     -36.62460000     -70.23520000
H      -47.15360000     -36.33980000     -68.30810000
H      -46.41990000     -33.34280000     -71.23780000
H      -48.70050000     -36.79000000     -72.30670000
H      -48.45420000     -37.59680000     -70.02620000
C      -47.78450000     -34.34070000     -73.23020000
H      -47.60020000     -33.21120000     -73.20830000
H      -48.72810000     -34.63620000     -73.66470000
C      -45.97830000     -33.71820000     -68.70050000
H      -45.80050000     -32.77990000     -69.23060000
H      -46.44410000     -33.43350000     -67.75820000
S      -46.52530000     -35.16910000     -74.34240000
S      -44.32760000     -34.50160000     -68.36970000
C      -45.05660000     -35.11390000     -73.33990000
H      -45.33880000     -35.43060000     -72.35220000
H      -44.49410000     -35.95310000     -73.77000000
C      -43.63420000     -34.81780000     -70.02650000
H      -44.42060000     -34.73950000     -70.77340000
H      -43.21690000     -35.83400000     -69.99750000
C      -42.52980000     -33.88160000     -70.48870000
H      -41.73840000     -33.91090000     -69.72680000
H      -42.01950000     -34.28530000     -71.36780000
C      -44.10090000     -33.94960000     -73.44150000
H      -43.94690000     -33.85860000     -74.53980000
H      -43.15250000     -34.29290000     -73.00530000
C      -44.45370000     -32.56150000     -72.89850000
C      -45.32630000     -31.71300000     -73.52290000
C      -43.95380000     -31.98660000     -71.68230000
H      -45.85590000     -31.79990000     -74.44740000
C      -44.44500000     -30.70650000     -71.52810000
C      -43.10900000     -32.45040000     -70.60860000
C      -42.82080000     -31.48460000     -69.73180000
S      -45.48990000     -30.17170000     -72.72030000
S      -43.82750000     -30.00160000     -70.03200000
H      -42.01500000     -31.43590000     -68.98440000
