40
Properties=species:S:1:pos:R:3 #=T CELL(abcABC):=T 1.889726e+02=T 90.00000=T Traj:=T positionsangstrom=T Step:=T 0=T Bead:=T pbc="F F F"
C      -45.50980000     -34.38720000     -74.80110000
C      -45.25190000     -33.03660000     -74.54940000
C      -46.32420000     -32.26660000     -74.05390000
C      -47.58470000     -32.75040000     -73.79460000
C      -47.81420000     -34.14660000     -73.99340000
C      -46.71630000     -34.93150000     -74.43700000
H      -44.69740000     -34.96150000     -75.16430000
H      -46.04600000     -31.19820000     -73.88840000
H      -48.77750000     -34.62780000     -73.70680000
H      -46.91100000     -36.03240000     -74.52070000
C      -48.67930000     -31.77070000     -73.38990000
H      -49.67230000     -32.23430000     -73.38950000
H      -48.81370000     -30.97310000     -74.19330000
C      -43.86250000     -32.46460000     -74.71630000
H      -43.40540000     -32.28540000     -75.72390000
H      -43.79240000     -31.54120000     -74.10810000
S      -48.38990000     -30.89050000     -71.74260000
S      -42.56090000     -33.53530000     -74.10020000
C      -47.97580000     -32.31640000     -70.69000000
H      -48.29430000     -32.05550000     -69.65970000
H      -48.56890000     -33.15120000     -71.15760000
C      -43.14820000     -34.06740000     -72.41050000
H      -42.42540000     -34.85690000     -71.97560000
H      -44.11370000     -34.59400000     -72.41830000
C      -42.92010000     -32.88070000     -71.34360000
H      -41.91150000     -32.40280000     -71.35050000
H      -43.54440000     -32.05420000     -71.53870000
C      -46.54070000     -32.61960000     -70.77950000
H      -46.00750000     -31.71820000     -71.04010000
H      -46.36680000     -33.29490000     -71.64850000
C      -45.90570000     -33.31520000     -69.53110000
C      -46.73230000     -33.75890000     -68.55230000
C      -44.47970000     -33.56800000     -69.17260000
H      -47.80490000     -33.69710000     -68.54120000
C      -44.36260000     -34.26990000     -67.97410000
C      -43.21900000     -33.50660000     -69.93140000
C      -42.24150000     -34.24930000     -69.31580000
S      -45.90340000     -34.57540000     -67.17670000
S      -42.75750000     -34.89130000     -67.76700000
H      -41.25100000     -34.27000000     -69.81950000
