40
Properties=species:S:1:pos:R:3 #=T CELL(abcABC):=T 1.889726e+02=T 90.00000=T Traj:=T positionsangstrom=T Step:=T 0=T Bead:=T pbc="F F F"
C      -47.17830000     -35.76470000     -69.10180000
C      -46.86090000     -34.45380000     -69.40910000
C      -47.08050000     -34.00200000     -70.73050000
C      -47.63970000     -34.85750000     -71.67670000
C      -47.95620000     -36.18990000     -71.33720000
C      -47.76450000     -36.61550000     -70.01480000
H      -47.02470000     -36.16550000     -68.09510000
H      -46.84390000     -32.96950000     -71.03760000
H      -48.41870000     -36.80310000     -72.03810000
H      -47.83230000     -37.62910000     -69.73130000
C      -47.93660000     -34.52850000     -73.12200000
H      -48.11870000     -33.44860000     -73.18440000
H      -48.84350000     -35.02550000     -73.36620000
C      -46.08820000     -33.59000000     -68.36080000
H      -45.89250000     -32.56010000     -68.64130000
H      -46.56370000     -33.71630000     -67.40870000
S      -46.70640000     -34.97850000     -74.35360000
S      -44.40560000     -34.25880000     -68.11000000
C      -45.11270000     -35.24320000     -73.42850000
H      -45.33770000     -35.44300000     -72.36130000
H      -44.58660000     -36.11320000     -73.86160000
C      -43.69200000     -34.89670000     -69.72520000
H      -44.57150000     -35.07030000     -70.37960000
H      -43.25460000     -35.91630000     -69.50360000
C      -42.65740000     -33.98710000     -70.37710000
H      -41.73420000     -33.89090000     -69.75930000
H      -42.29630000     -34.46220000     -71.31330000
C      -44.13600000     -34.04350000     -73.67310000
H      -43.99040000     -33.93320000     -74.78550000
H      -43.14890000     -34.35850000     -73.37340000
C      -44.42850000     -32.69550000     -73.11920000
C      -45.11890000     -31.75560000     -73.83610000
C      -43.98660000     -32.16260000     -71.86250000
H      -45.62350000     -32.00790000     -74.73080000
C      -44.35330000     -30.77800000     -71.73550000
C      -43.26660000     -32.64240000     -70.64940000
C      -43.06960000     -31.60120000     -69.80150000
S      -45.32010000     -30.23600000     -73.01990000
S      -43.71100000     -30.06890000     -70.27460000
H      -42.64490000     -31.61310000     -68.84810000
