40
Properties=species:S:1:pos:R:3 #=T CELL(abcABC):=T 1.889726e+02=T 90.00000=T Traj:=T positionsangstrom=T Step:=T 0=T Bead:=T pbc="F F F"
C      -44.58420000     -36.32090000     -73.59820000
C      -44.65410000     -35.03700000     -74.08990000
C      -43.59300000     -34.12100000     -73.70610000
C      -42.50070000     -34.57820000     -72.93840000
C      -42.38460000     -35.87680000     -72.56390000
C      -43.41170000     -36.76270000     -72.95330000
H      -45.40830000     -36.98380000     -73.77340000
H      -43.42320000     -33.08140000     -74.00450000
H      -41.45080000     -36.22890000     -72.00780000
H      -43.30480000     -37.84930000     -72.81680000
C      -41.46490000     -33.63750000     -72.44370000
H      -40.66350000     -33.64170000     -73.14810000
H      -40.98020000     -33.86770000     -71.46650000
C      -45.91400000     -34.45980000     -74.78430000
H      -45.86780000     -33.38990000     -74.81380000
H      -46.04840000     -34.96750000     -75.71010000
S      -41.96020000     -31.90600000     -72.67880000
S      -47.53750000     -35.10010000     -73.95130000
C      -43.03970000     -31.60850000     -71.22020000
H      -42.49020000     -32.03020000     -70.33230000
H      -42.90840000     -30.51470000     -71.04570000
C      -47.67680000     -34.05540000     -72.41520000
H      -48.72670000     -33.98820000     -72.12900000
H      -47.26250000     -33.07770000     -72.66650000
C      -46.74560000     -34.56370000     -71.31890000
H      -46.86610000     -35.72520000     -71.11640000
H      -45.71870000     -34.50860000     -71.71770000
C      -44.52840000     -31.91850000     -71.31090000
H      -44.49880000     -32.99440000     -71.53310000
H      -44.99650000     -31.31700000     -72.07830000
C      -45.31970000     -31.69130000     -70.04320000
C      -45.10920000     -30.60400000     -69.21080000
C      -46.44410000     -32.49580000     -69.65310000
H      -44.35470000     -29.82710000     -69.16980000
C      -46.99710000     -32.07050000     -68.43260000
C      -46.98320000     -33.78890000     -70.02620000
C      -47.95780000     -34.20240000     -69.17020000
S      -46.25050000     -30.58750000     -67.87100000
S      -48.18990000     -33.08120000     -67.77690000
H      -48.48010000     -35.11120000     -69.25040000
