40
Properties=species:S:1:pos:R:3 #=T CELL(abcABC):=T 1.889726e+02=T 90.00000=T Traj:=T positionsangstrom=T Step:=T 0=T Bead:=T pbc="F F F"
C      -45.53580000     -33.59730000     -75.09300000
C      -45.67290000     -34.77450000     -74.33050000
C      -46.82970000     -34.89150000     -73.60890000
C      -47.78990000     -33.87850000     -73.46350000
C      -47.57570000     -32.70260000     -74.22060000
C      -46.43490000     -32.52140000     -74.96960000
H      -44.71120000     -33.37600000     -75.76100000
H      -46.97520000     -35.85530000     -73.10370000
H      -48.33070000     -31.85770000     -74.13110000
H      -46.33880000     -31.61600000     -75.55950000
C      -49.03210000     -34.16410000     -72.75510000
H      -48.96450000     -35.13920000     -72.34400000
H      -49.82230000     -34.11120000     -73.42250000
C      -44.67420000     -35.90450000     -74.47040000
H      -45.05760000     -36.80380000     -74.03130000
H      -44.65300000     -36.29110000     -75.54830000
S      -49.39720000     -32.93940000     -71.40250000
S      -42.93350000     -35.68940000     -73.80800000
C      -47.79060000     -32.41560000     -70.83800000
H      -47.25350000     -31.84640000     -71.61090000
H      -48.09180000     -31.62820000     -70.11440000
C      -43.15100000     -35.41190000     -71.98480000
H      -42.15420000     -35.69850000     -71.54610000
H      -43.75310000     -36.09870000     -71.46600000
C      -43.68670000     -33.93510000     -71.70540000
H      -43.15440000     -33.39530000     -72.44390000
H      -44.76290000     -33.80690000     -71.84980000
C      -46.91930000     -33.40500000     -70.05760000
H      -46.45360000     -34.12380000     -70.74560000
H      -47.52600000     -34.00990000     -69.37320000
C      -45.83220000     -32.61880000     -69.24210000
C      -46.06970000     -31.62510000     -68.35720000
C      -44.38090000     -32.78230000     -69.44020000
H      -47.02450000     -31.25260000     -67.97640000
C      -43.65710000     -32.05370000     -68.45840000
C      -43.41590000     -33.44530000     -70.32700000
C      -42.16200000     -33.54900000     -69.69610000
S      -44.69020000     -31.06830000     -67.51370000
S      -41.96430000     -32.45880000     -68.30410000
H      -41.32120000     -34.12700000     -70.10530000
