40
Properties=species:S:1:pos:R:3 #=T CELL(abcABC):=T 1.889726e+02=T 90.00000=T Traj:=T positionsangstrom=T Step:=T 0=T Bead:=T pbc="F F F"
C      -47.22330000     -36.25610000     -69.64600000
C      -46.39700000     -35.09210000     -69.71370000
C      -46.41250000     -34.31690000     -70.83910000
C      -47.21960000     -34.71580000     -71.94010000
C      -47.86820000     -35.93360000     -71.93050000
C      -47.99620000     -36.65140000     -70.74750000
H      -47.25920000     -36.69910000     -68.68100000
H      -45.89990000     -33.34520000     -70.83800000
H      -48.43390000     -36.26980000     -72.85420000
H      -48.48880000     -37.69600000     -70.65330000
C      -47.38600000     -33.69620000     -73.11460000
H      -47.10650000     -32.69680000     -72.85940000
H      -48.42940000     -33.69190000     -73.49790000
C      -45.56630000     -34.68720000     -68.59460000
H      -45.66460000     -33.54940000     -68.45730000
H      -46.00870000     -35.03760000     -67.63880000
S      -46.24370000     -34.32340000     -74.60250000
S      -43.85350000     -35.25510000     -68.52710000
C      -44.53890000     -34.59680000     -73.80930000
H      -44.67160000     -35.18100000     -72.87060000
H      -44.14900000     -35.30350000     -74.54670000
C      -43.17620000     -35.00440000     -70.23920000
H      -44.02030000     -34.99460000     -70.91250000
H      -42.53830000     -35.80830000     -70.67350000
C      -42.56220000     -33.57750000     -70.31780000
H      -41.90130000     -33.51020000     -69.43150000
H      -41.91350000     -33.63450000     -71.21500000
C      -43.69810000     -33.29840000     -73.71260000
H      -43.56340000     -32.96790000     -74.76120000
H      -42.67750000     -33.54730000     -73.37100000
C      -44.31580000     -32.19000000     -72.93250000
C      -45.09490000     -31.18630000     -73.61950000
C      -44.15710000     -31.87690000     -71.51120000
H      -45.44940000     -31.27360000     -74.64410000
C      -45.00550000     -30.76710000     -71.19200000
C      -43.53130000     -32.49650000     -70.39600000
C      -43.92480000     -31.86720000     -69.22890000
S      -45.92090000     -30.13310000     -72.46800000
S      -45.12240000     -30.55430000     -69.47620000
H      -43.66010000     -31.92910000     -68.12700000
