40
Properties=species:S:1:pos:R:3 #=T CELL(abcABC):=T 1.889726e+02=T 90.00000=T Traj:=T positionsangstrom=T Step:=T 0=T Bead:=T pbc="F F F"
C      -47.49120000     -35.91950000     -69.47620000
C      -46.63010000     -34.86630000     -69.84800000
C      -46.63880000     -34.34180000     -71.12440000
C      -47.41990000     -34.91930000     -72.05680000
C      -48.18140000     -36.05440000     -71.77880000
C      -48.19230000     -36.55670000     -70.48550000
H      -47.56420000     -36.21870000     -68.45510000
H      -46.14810000     -33.36350000     -71.26410000
H      -48.74140000     -36.57390000     -72.49100000
H      -48.89440000     -37.29430000     -70.20060000
C      -47.60250000     -34.29100000     -73.46850000
H      -47.83860000     -33.22630000     -73.39420000
H      -48.44820000     -34.68390000     -73.93190000
C      -45.65370000     -34.29540000     -68.84210000
H      -45.37260000     -33.26730000     -69.13460000
H      -46.10090000     -34.24200000     -67.79170000
S      -46.18620000     -34.72770000     -74.57590000
S      -44.05540000     -35.23650000     -68.71730000
C      -44.70080000     -34.69530000     -73.58580000
H      -45.01050000     -35.16090000     -72.63590000
H      -44.01900000     -35.53670000     -73.96980000
C      -43.31110000     -34.82240000     -70.35610000
H      -44.20700000     -34.80570000     -71.06900000
H      -42.88330000     -35.76330000     -70.74050000
C      -42.40010000     -33.51990000     -70.28750000
H      -41.98050000     -33.57490000     -69.30310000
H      -41.69920000     -33.66880000     -71.11670000
C      -43.83950000     -33.46790000     -73.53180000
H      -43.48630000     -33.17680000     -74.54710000
H      -42.92120000     -33.82980000     -72.94640000
C      -44.40780000     -32.35320000     -72.77450000
C      -45.53670000     -31.67170000     -73.28210000
C      -44.04520000     -31.80840000     -71.49050000
H      -45.96380000     -31.68210000     -74.26390000
C      -44.75250000     -30.68140000     -71.13030000
C      -43.18530000     -32.28490000     -70.44930000
C      -43.27270000     -31.44220000     -69.37070000
S      -46.00540000     -30.28230000     -72.29810000
S      -44.38210000     -30.08590000     -69.54500000
H      -42.67230000     -31.56080000     -68.52790000
