40
Properties=species:S:1:pos:R:3 #=T CELL(abcABC):=T 1.889726e+02=T 90.00000=T Traj:=T positionsangstrom=T Step:=T 0=T Bead:=T pbc="F F F"
C      -45.40020000     -29.88030000     -73.56700000
C      -44.57410000     -30.43440000     -72.52660000
C      -43.76770000     -31.53640000     -72.85060000
C      -43.84810000     -32.24510000     -74.07120000
C      -44.78640000     -31.81760000     -75.01920000
C      -45.51020000     -30.65500000     -74.72000000
H      -46.14190000     -29.00270000     -73.36620000
H      -43.18090000     -31.93760000     -72.08230000
H      -44.93000000     -32.42070000     -75.90610000
H      -46.30230000     -30.28590000     -75.39690000
C      -42.99530000     -33.45700000     -74.25880000
H      -42.19700000     -33.17660000     -74.87460000
H      -43.55560000     -34.17560000     -74.95990000
C      -44.55460000     -29.71210000     -71.18640000
H      -44.26210000     -28.68070000     -71.18930000
H      -45.57880000     -29.73150000     -70.81500000
S      -42.30520000     -34.15730000     -72.74290000
S      -43.49880000     -30.48460000     -69.84970000
C      -43.69560000     -35.18720000     -72.12800000
H      -43.73370000     -36.10310000     -72.70970000
H      -43.50880000     -35.32510000     -71.14030000
C      -44.22080000     -32.13350000     -69.39780000
H      -44.03670000     -32.20020000     -68.33430000
H      -43.80190000     -33.04290000     -69.81830000
C      -45.72890000     -32.27960000     -69.71640000
H      -46.31210000     -31.42280000     -69.41600000
H      -45.89730000     -32.10580000     -70.80280000
C      -45.07120000     -34.40870000     -72.36340000
H      -45.36300000     -34.50900000     -73.38960000
H      -45.04800000     -33.38720000     -71.97990000
C      -46.10320000     -35.14780000     -71.50870000
C      -46.85260000     -36.28310000     -71.95970000
C      -46.48020000     -34.82520000     -70.14310000
H      -46.72010000     -36.87210000     -72.82910000
C      -47.38440000     -35.71000000     -69.60410000
C      -46.44620000     -33.56570000     -69.26320000
C      -47.27540000     -33.68880000     -68.18380000
S      -47.85010000     -37.03230000     -70.67170000
S      -48.12310000     -35.23700000     -68.11910000
H      -47.43960000     -32.98410000     -67.38330000
