40
Properties=species:S:1:pos:R:3 #=T CELL(abcABC):=T 1.889726e+02=T 90.00000=T Traj:=T positionsangstrom=T Step:=T 0=T Bead:=T pbc="F F F"
C      -42.99430000     -33.59470000     -67.25380000
C      -44.18970000     -34.18200000     -67.82100000
C      -44.11200000     -34.90910000     -69.01410000
C      -42.88650000     -35.21210000     -69.71370000
C      -41.73320000     -34.72890000     -69.09850000
C      -41.82280000     -34.02730000     -67.84570000
H      -43.06110000     -33.10320000     -66.25440000
H      -45.03380000     -35.26010000     -69.56960000
H      -40.70630000     -34.86750000     -69.43830000
H      -40.89700000     -33.64110000     -67.40430000
C      -42.88190000     -35.97710000     -71.00820000
H      -43.30480000     -37.01630000     -70.96020000
H      -41.87460000     -36.03910000     -71.40390000
C      -45.56010000     -33.81760000     -67.24760000
H      -46.34630000     -34.38630000     -67.61150000
H      -45.38650000     -33.63400000     -66.19860000
S      -44.08610000     -35.13750000     -72.26330000
S      -46.16500000     -32.09930000     -67.64180000
C      -42.96370000     -33.86370000     -73.06780000
H      -41.91500000     -33.99110000     -72.70510000
H      -42.87790000     -34.02050000     -74.17190000
C      -47.09450000     -32.20740000     -69.25200000
H      -47.69650000     -31.23810000     -69.21760000
H      -47.81640000     -33.05160000     -69.25050000
C      -46.17910000     -32.31100000     -70.51200000
H      -45.49130000     -31.43490000     -70.48510000
H      -45.58550000     -33.29330000     -70.35070000
C      -43.65850000     -32.50360000     -72.97090000
H      -42.98160000     -31.74470000     -73.48590000
H      -43.72110000     -32.25830000     -71.91290000
C      -44.96800000     -32.52870000     -73.67140000
C      -44.99110000     -32.69390000     -75.03000000
C      -46.32520000     -32.44170000     -73.12360000
H      -44.04830000     -32.98540000     -75.57620000
C      -47.27890000     -32.65310000     -74.09450000
C      -46.98270000     -32.37240000     -71.79660000
C      -48.31280000     -32.49220000     -71.82690000
S      -46.56250000     -32.95770000     -75.70510000
S      -48.94400000     -32.59590000     -73.48550000
H      -48.93940000     -32.70920000     -70.95460000
