40
Properties=species:S:1:pos:R:3 #=T CELL(abcABC):=T 1.889726e+02=T 90.00000=T Traj:=T positionsangstrom=T Step:=T 0=T Bead:=T pbc="F F F"
C      -45.31870000     -29.89660000     -73.48020000
C      -44.44050000     -30.33490000     -72.42330000
C      -43.58950000     -31.44010000     -72.68020000
C      -43.65420000     -32.09260000     -73.92320000
C      -44.57300000     -31.65480000     -74.91160000
C      -45.32970000     -30.51570000     -74.73780000
H      -45.90410000     -28.93880000     -73.26850000
H      -42.81810000     -31.64990000     -71.96450000
H      -44.67250000     -32.15630000     -75.86410000
H      -45.97440000     -30.05350000     -75.51930000
C      -42.81100000     -33.32300000     -74.27860000
H      -41.81580000     -33.06830000     -74.72300000
H      -43.34060000     -33.94260000     -74.97800000
C      -44.48660000     -29.64210000     -71.03110000
H      -43.96310000     -28.66080000     -71.09640000
H      -45.50850000     -29.30530000     -70.75270000
S      -42.27030000     -34.29260000     -72.79590000
S      -43.64300000     -30.49080000     -69.61230000
C      -43.60760000     -35.22510000     -72.01130000
H      -43.49000000     -36.34680000     -72.12730000
H      -43.43690000     -35.06470000     -70.92630000
C      -44.41640000     -32.25700000     -69.48520000
H      -44.42150000     -32.55580000     -68.41740000
H      -43.71520000     -32.91460000     -70.09620000
C      -45.86390000     -32.30840000     -69.94610000
H      -46.39110000     -31.46920000     -69.56600000
H      -45.91860000     -32.17580000     -71.05330000
C      -45.03860000     -34.70640000     -72.31270000
H      -45.22620000     -34.72940000     -73.34800000
H      -44.91450000     -33.61170000     -72.07880000
C      -46.13050000     -35.30740000     -71.54870000
C      -46.68330000     -36.54280000     -71.91130000
C      -46.68140000     -34.80040000     -70.34830000
H      -46.37480000     -37.23330000     -72.69500000
C      -47.74260000     -35.54580000     -69.84750000
C      -46.56480000     -33.56260000     -69.50840000
C      -47.21110000     -33.61860000     -68.32180000
S      -47.96080000     -37.07300000     -70.70650000
S      -48.19830000     -35.15010000     -68.18820000
H      -47.30500000     -32.76050000     -67.63110000
