40
Properties=species:S:1:pos:R:3 #=T CELL(abcABC):=T 1.889726e+02=T 90.00000=T Traj:=T positionsangstrom=T Step:=T 0=T Bead:=T pbc="F F F"
C      -44.99640000     -29.85950000     -73.08990000
C      -44.12380000     -30.39940000     -72.09880000
C      -43.27930000     -31.44150000     -72.51220000
C      -43.42350000     -32.06050000     -73.78240000
C      -44.34460000     -31.55050000     -74.66980000
C      -45.05920000     -30.42720000     -74.37310000
H      -45.64020000     -29.13620000     -72.81540000
H      -42.47550000     -31.79420000     -71.84270000
H      -44.54500000     -31.92530000     -75.64850000
H      -45.72090000     -30.03600000     -75.13090000
C      -42.48910000     -33.26130000     -74.17960000
H      -41.52040000     -32.91950000     -74.42250000
H      -42.83990000     -33.73460000     -75.13230000
C      -43.99520000     -29.71550000     -70.74260000
H      -43.16910000     -28.97130000     -70.70170000
H      -44.92850000     -29.23620000     -70.49950000
S      -42.23060000     -34.45540000     -72.84360000
S      -43.71970000     -30.77900000     -69.30220000
C      -43.77280000     -35.02360000     -71.99060000
H      -43.75470000     -36.09130000     -72.06280000
H      -43.70200000     -34.73040000     -70.97450000
C      -44.68960000     -32.34400000     -69.54640000
H      -44.60660000     -32.99810000     -68.64490000
H      -44.10390000     -32.89090000     -70.39510000
C      -46.09420000     -32.18740000     -70.08370000
H      -46.57810000     -31.32310000     -69.55480000
H      -46.08660000     -31.97700000     -71.14060000
C      -45.11590000     -34.59230000     -72.56050000
H      -45.15700000     -34.98770000     -73.59310000
H      -45.02700000     -33.54460000     -72.47770000
C      -46.24340000     -35.20060000     -71.69770000
C      -46.69900000     -36.46660000     -71.98440000
C      -46.85790000     -34.71640000     -70.46510000
H      -46.47620000     -37.18270000     -72.80470000
C      -47.56240000     -35.71080000     -69.79010000
C      -46.95450000     -33.44750000     -69.86950000
C      -47.94770000     -33.36760000     -68.93840000
S      -47.69920000     -37.16540000     -70.67450000
S      -48.63040000     -35.00250000     -68.60590000
H      -48.15730000     -32.50330000     -68.30180000
