40
Properties=species:S:1:pos:R:3 #=T CELL(abcABC):=T 1.889726e+02=T 90.00000=T Traj:=T positionsangstrom=T Step:=T 0=T Bead:=T pbc="F F F"
C      -45.41540000     -33.58960000     -75.10430000
C      -45.56140000     -34.79310000     -74.37740000
C      -46.70880000     -34.89890000     -73.60610000
C      -47.74560000     -33.97110000     -73.60460000
C      -47.56600000     -32.83370000     -74.43100000
C      -46.41670000     -32.67090000     -75.14500000
H      -44.40740000     -33.41880000     -75.54860000
H      -46.91930000     -35.75320000     -72.99870000
H      -48.25690000     -32.05060000     -74.57020000
H      -46.25740000     -31.76640000     -75.68320000
C      -48.99300000     -34.22620000     -72.84010000
H      -48.98020000     -35.29550000     -72.41100000
H      -49.89070000     -34.13640000     -73.46570000
C      -44.57500000     -35.93180000     -74.51020000
H      -44.94410000     -36.77590000     -73.95610000
H      -44.38020000     -36.05210000     -75.56960000
S      -49.39700000     -33.02170000     -71.50260000
S      -42.91790000     -35.55540000     -73.81990000
C      -47.76350000     -32.28580000     -70.80330000
H      -47.11390000     -32.03680000     -71.59410000
H      -48.04910000     -31.38160000     -70.26000000
C      -43.18160000     -35.44580000     -71.91620000
H      -42.18350000     -35.41240000     -71.47420000
H      -43.82540000     -36.36880000     -71.62470000
C      -43.91420000     -34.12160000     -71.58840000
H      -43.76560000     -33.27450000     -72.28030000
H      -44.98600000     -34.31080000     -71.50490000
C      -47.02810000     -33.37150000     -69.98150000
H      -46.69950000     -34.09840000     -70.70790000
H      -47.69910000     -33.98570000     -69.32510000
C      -45.85110000     -32.74400000     -69.17420000
C      -46.21200000     -31.78570000     -68.30600000
C      -44.34710000     -32.87150000     -69.25210000
H      -47.22580000     -31.42040000     -68.05790000
C      -43.70030000     -32.09780000     -68.29270000
C      -43.45350000     -33.45290000     -70.24160000
C      -42.12130000     -33.21170000     -69.85980000
S      -44.76700000     -31.09090000     -67.35410000
S      -41.90720000     -32.24960000     -68.33490000
H      -41.29980000     -33.60470000     -70.44170000
