40
Properties=species:S:1:pos:R:3 #=T CELL(abcABC):=T 1.889726e+02=T 90.00000=T Traj:=T positionsangstrom=T Step:=T 0=T Bead:=T pbc="F F F"
C      -43.23100000     -33.17430000     -67.87970000
C      -44.30530000     -34.04960000     -68.08500000
C      -44.11970000     -35.10730000     -68.98160000
C      -42.90490000     -35.27250000     -69.76610000
C      -41.94960000     -34.26690000     -69.66280000
C      -42.03880000     -33.30240000     -68.66550000
H      -43.30480000     -32.33420000     -67.19690000
H      -44.84780000     -35.92390000     -69.04660000
H      -40.96700000     -34.36700000     -70.21490000
H      -41.22340000     -32.57910000     -68.53860000
C      -42.95270000     -36.23990000     -70.87290000
H      -43.55950000     -37.09260000     -70.58600000
H      -41.89140000     -36.56990000     -71.14460000
C      -45.59860000     -33.97460000     -67.27400000
H      -46.44180000     -34.80170000     -67.39830000
H      -45.41380000     -34.03320000     -66.17620000
S      -43.85390000     -35.55960000     -72.36840000
S      -46.45530000     -32.32520000     -67.69010000
C      -42.89500000     -33.99040000     -72.64470000
H      -42.01720000     -34.07570000     -71.99780000
H      -42.63080000     -33.92490000     -73.71600000
C      -47.31430000     -32.73670000     -69.19340000
H      -47.82480000     -31.87690000     -69.52620000
H      -48.17300000     -33.36000000     -68.98520000
C      -46.50000000     -33.37850000     -70.30810000
H      -45.50200000     -33.02010000     -70.18420000
H      -46.37300000     -34.49380000     -70.41880000
C      -43.69710000     -32.62980000     -72.38630000
H      -43.04730000     -31.68270000     -72.45030000
H      -43.90680000     -32.45870000     -71.40220000
C      -44.83790000     -32.46290000     -73.32220000
C      -44.70390000     -32.06070000     -74.67290000
C      -46.22770000     -32.72110000     -72.92500000
H      -43.75630000     -32.15980000     -75.27160000
C      -47.07800000     -32.39510000     -73.99650000
C      -47.04830000     -32.94820000     -71.66520000
C      -48.39340000     -32.86920000     -71.93130000
S      -46.27360000     -32.00620000     -75.52070000
S      -48.77850000     -32.40270000     -73.60750000
H      -49.14780000     -33.04570000     -71.17620000
