40
Properties=species:S:1:pos:R:3 #=T CELL(abcABC):=T 1.889726e+02=T 90.00000=T Traj:=T positionsangstrom=T Step:=T 0=T Bead:=T pbc="F F F"
C      -43.13030000     -33.49790000     -67.42180000
C      -44.28200000     -34.16740000     -67.86280000
C      -44.14120000     -35.03650000     -68.98580000
C      -43.00390000     -35.17540000     -69.73420000
C      -41.87710000     -34.35110000     -69.37590000
C      -41.93740000     -33.61950000     -68.16270000
H      -43.06960000     -33.01150000     -66.44670000
H      -45.02560000     -35.56760000     -69.22290000
H      -41.04090000     -34.31270000     -70.04070000
H      -41.06860000     -33.12760000     -67.80480000
C      -42.89210000     -36.11010000     -70.87180000
H      -43.21610000     -37.16950000     -70.72690000
H      -41.87760000     -36.22570000     -71.28150000
C      -45.60670000     -33.95980000     -67.21320000
H      -46.29120000     -34.69970000     -67.67690000
H      -45.66020000     -34.05600000     -66.10600000
S      -43.94290000     -35.46620000     -72.35220000
S      -46.30150000     -32.26730000     -67.58840000
C      -42.95440000     -34.04970000     -72.88390000
H      -42.17390000     -33.91780000     -72.13700000
H      -42.55560000     -33.99280000     -73.90290000
C      -47.12590000     -32.51910000     -69.27980000
H      -47.88450000     -31.71010000     -69.20350000
H      -47.50160000     -33.56250000     -69.35720000
C      -46.14030000     -32.33460000     -70.44560000
H      -45.70660000     -31.28440000     -70.30230000
H      -45.29470000     -33.01730000     -70.34400000
C      -43.65960000     -32.58170000     -72.79620000
H      -42.91260000     -31.98400000     -73.26950000
H      -43.77240000     -32.34460000     -71.71510000
C      -44.94380000     -32.48590000     -73.56600000
C      -44.92160000     -32.39670000     -74.96620000
C      -46.27810000     -32.51370000     -73.10350000
H      -44.02470000     -32.20030000     -75.49960000
C      -47.23380000     -32.56030000     -74.12680000
C      -46.89650000     -32.56250000     -71.73360000
C      -48.25020000     -32.63980000     -71.87640000
S      -46.53790000     -32.39360000     -75.66160000
S      -48.83520000     -32.64430000     -73.49730000
H      -49.01660000     -32.55480000     -71.10580000
