40
Properties=species:S:1:pos:R:3 #=T CELL(abcABC):=T 1.889726e+02=T 90.00000=T Traj:=T positionsangstrom=T Step:=T 0=T Bead:=T pbc="F F F"
C      -45.23350000     -29.89150000     -73.19410000
C      -44.32620000     -30.39040000     -72.22310000
C      -43.43630000     -31.45880000     -72.58930000
C      -43.51090000     -32.06900000     -73.83330000
C      -44.35540000     -31.50780000     -74.80070000
C      -45.14570000     -30.42630000     -74.49730000
H      -45.85180000     -29.08140000     -72.91100000
H      -42.79830000     -31.79700000     -71.74150000
H      -44.44700000     -31.81780000     -75.80280000
H      -45.65350000     -30.00590000     -75.34220000
C      -42.65170000     -33.30300000     -74.21690000
H      -41.66160000     -33.01360000     -74.68670000
H      -43.20870000     -33.87620000     -74.95150000
C      -44.33210000     -29.63620000     -70.96450000
H      -43.63770000     -28.78600000     -71.14100000
H      -45.31490000     -29.19010000     -70.79320000
S      -42.13330000     -34.48820000     -72.81520000
S      -43.75850000     -30.60510000     -69.48030000
C      -43.71670000     -35.07160000     -72.02140000
H      -43.61180000     -36.11460000     -72.03460000
H      -43.69150000     -34.80630000     -70.90820000
C      -44.54570000     -32.30150000     -69.64010000
H      -44.45630000     -32.70450000     -68.65930000
H      -43.88130000     -32.85380000     -70.20680000
C      -45.99610000     -32.25730000     -70.09560000
H      -46.38000000     -31.47350000     -69.45270000
H      -46.06850000     -32.09380000     -71.21830000
C      -45.07200000     -34.64470000     -72.52630000
H      -45.20930000     -34.99970000     -73.57540000
H      -45.32250000     -33.57140000     -72.58940000
C      -46.15150000     -35.33950000     -71.67050000
C      -46.58550000     -36.64570000     -71.80840000
C      -46.82150000     -34.75040000     -70.46420000
H      -46.47990000     -37.31670000     -72.69960000
C      -47.75910000     -35.62350000     -69.84220000
C      -46.76400000     -33.52350000     -69.70100000
C      -47.52060000     -33.53510000     -68.56170000
S      -47.87230000     -37.14810000     -70.68880000
S      -48.38600000     -34.92950000     -68.32280000
H      -47.65660000     -32.64910000     -67.93200000
