40
Properties=species:S:1:pos:R:3 #=T CELL(abcABC):=T 1.889726e+02=T 90.00000=T Traj:=T positionsangstrom=T Step:=T 0=T Bead:=T pbc="F F F"
C      -49.12180000     -32.28600000     -70.75350000
C      -48.43030000     -32.55550000     -69.54180000
C      -47.45910000     -31.63780000     -69.17390000
C      -47.03840000     -30.53240000     -69.95400000
C      -47.78120000     -30.28500000     -71.12020000
C      -48.83970000     -31.12350000     -71.43410000
H      -49.69990000     -33.04780000     -71.19400000
H      -46.77690000     -31.92710000     -68.35460000
H      -47.60510000     -29.36540000     -71.75090000
H      -49.46460000     -30.91920000     -72.34680000
C      -45.91410000     -29.75330000     -69.54210000
H      -45.59210000     -30.18250000     -68.62090000
H      -46.17410000     -28.66500000     -69.57520000
C      -48.68200000     -33.85130000     -68.82110000
H      -48.15980000     -33.73690000     -67.88290000
H      -49.75380000     -34.01450000     -68.57170000
S      -44.45870000     -29.65310000     -70.78170000
S      -48.19920000     -35.45450000     -69.67750000
C      -44.29610000     -31.36940000     -71.62970000
H      -45.23650000     -31.68650000     -72.06890000
H      -43.71940000     -31.03460000     -72.54610000
C      -46.49090000     -35.32910000     -70.39980000
H      -46.24550000     -36.40950000     -70.39440000
H      -45.91490000     -34.85090000     -69.62580000
C      -46.31910000     -34.82720000     -71.84450000
H      -47.20510000     -35.13360000     -72.44330000
H      -46.48350000     -33.76610000     -72.00210000
C      -43.76220000     -32.42050000     -70.74760000
H      -44.53880000     -32.77550000     -70.07770000
H      -43.07340000     -31.95870000     -70.01970000
C      -43.08000000     -33.48130000     -71.48410000
C      -41.70150000     -33.48450000     -71.56430000
C      -43.70450000     -34.55510000     -72.25760000
H      -41.02130000     -32.58340000     -71.22290000
C      -42.76340000     -35.26260000     -73.02630000
C      -44.96840000     -35.20480000     -72.47810000
C      -44.88130000     -36.30910000     -73.29240000
S      -41.13460000     -34.63940000     -72.75390000
S      -43.27330000     -36.62310000     -73.95260000
H      -45.65110000     -37.01870000     -73.45470000
