40
Properties=species:S:1:pos:R:3 #=T CELL(abcABC):=T 1.889726e+02=T 90.00000=T Traj:=T positionsangstrom=T Step:=T 0=T Bead:=T pbc="F F F"
C      -47.73740000     -31.94590000     -74.40700000
C      -47.81820000     -32.94240000     -73.41220000
C      -46.94190000     -34.00830000     -73.40240000
C      -46.03740000     -34.23080000     -74.44800000
C      -45.92070000     -33.18560000     -75.39960000
C      -46.75740000     -32.14290000     -75.38460000
H      -48.41600000     -31.12520000     -74.24310000
H      -46.97450000     -34.71060000     -72.51320000
H      -45.08510000     -33.32220000     -76.13600000
H      -46.57170000     -31.26750000     -75.98440000
C      -45.25090000     -35.48620000     -74.56960000
H      -45.34840000     -35.81480000     -75.56420000
H      -45.49190000     -36.29320000     -73.84230000
C      -48.72860000     -32.82090000     -72.26380000
H      -49.56460000     -32.22400000     -72.55190000
H      -49.22710000     -33.74980000     -72.09940000
S      -43.39760000     -35.15730000     -74.39310000
S      -47.88480000     -32.31620000     -70.69270000
C      -43.06830000     -35.21270000     -72.59290000
H      -43.33460000     -36.26630000     -72.30700000
H      -42.00820000     -35.05250000     -72.47210000
C      -46.71180000     -30.88540000     -71.11480000
H      -46.94360000     -30.07900000     -70.35600000
H      -46.86870000     -30.54820000     -72.13810000
C      -45.22110000     -31.22810000     -70.92540000
H      -44.92340000     -31.82620000     -71.77910000
H      -44.69570000     -30.25200000     -70.96600000
C      -43.74420000     -34.19700000     -71.80620000
H      -44.78410000     -34.05960000     -72.20320000
H      -43.25420000     -33.24740000     -72.07760000
C      -43.78110000     -34.25450000     -70.33580000
C      -43.31250000     -35.33420000     -69.58930000
C      -44.28590000     -33.16940000     -69.51030000
H      -43.13100000     -36.32740000     -70.06170000
C      -44.10980000     -33.49900000     -68.17090000
C      -44.93290000     -31.83850000     -69.57860000
C      -45.30190000     -31.28310000     -68.38490000
S      -43.34780000     -35.07010000     -67.87070000
S      -44.84050000     -32.32420000     -67.08280000
H      -45.58310000     -30.23120000     -68.15800000
