40
Properties=species:S:1:pos:R:3 #=T CELL(abcABC):=T 1.889726e+02=T 90.00000=T Traj:=T positionsangstrom=T Step:=T 0=T Bead:=T pbc="F F F"
C      -47.81460000     -32.65080000     -74.63130000
C      -47.62010000     -33.70300000     -73.70920000
C      -46.56800000     -34.64750000     -73.92400000
C      -45.64320000     -34.53370000     -74.96090000
C      -45.79940000     -33.45640000     -75.84650000
C      -46.82190000     -32.54450000     -75.67900000
H      -48.53560000     -31.88890000     -74.44260000
H      -46.48110000     -35.51600000     -73.29300000
H      -45.13200000     -33.50780000     -76.71600000
H      -46.94280000     -31.74640000     -76.42460000
C      -44.47880000     -35.49200000     -74.99170000
H      -44.04040000     -35.56350000     -75.98400000
H      -44.71580000     -36.41680000     -74.52070000
C      -48.39780000     -33.80290000     -72.37460000
H      -49.29890000     -33.17010000     -72.36930000
H      -48.76560000     -34.87400000     -72.13380000
S      -43.06810000     -34.74110000     -73.98290000
S      -47.25530000     -33.27550000     -70.93820000
C      -43.40130000     -35.01110000     -72.18850000
H      -44.25890000     -35.71950000     -71.96340000
H      -42.44730000     -35.38280000     -71.80230000
C      -46.96610000     -31.44770000     -71.38780000
H      -47.85640000     -30.86140000     -71.01340000
H      -46.96870000     -31.45760000     -72.47470000
C      -45.61140000     -30.95440000     -70.94290000
H      -44.91580000     -31.17190000     -71.74410000
H      -45.78050000     -29.89020000     -70.92760000
C      -43.75980000     -33.70270000     -71.53840000
H      -44.61270000     -33.29780000     -72.00710000
H      -42.96420000     -32.92660000     -71.76020000
C      -43.93200000     -33.80480000     -70.03670000
C      -43.34710000     -34.78900000     -69.23840000
C      -44.57540000     -32.76830000     -69.32020000
H      -42.85040000     -35.77670000     -69.48080000
C      -44.53230000     -33.07870000     -67.92520000
C      -45.20640000     -31.47580000     -69.56960000
C      -45.64480000     -30.87460000     -68.41180000
S      -43.75410000     -34.56770000     -67.55520000
S      -45.21040000     -31.80000000     -66.98790000
H      -45.99020000     -29.82240000     -68.23990000
