40
Properties=species:S:1:pos:R:3 #=T CELL(abcABC):=T 1.889726e+02=T 90.00000=T Traj:=T positionsangstrom=T Step:=T 0=T Bead:=T pbc="F F F"
C      -44.63180000     -37.82780000     -71.92560000
C      -44.96580000     -36.71190000     -71.11400000
C      -45.70790000     -35.60900000     -71.56480000
C      -45.99540000     -35.59200000     -72.98060000
C      -45.53540000     -36.63860000     -73.82630000
C      -44.76660000     -37.70710000     -73.30830000
H      -44.01640000     -38.59110000     -71.52470000
H      -46.03490000     -34.74150000     -70.93540000
H      -45.56890000     -36.64570000     -74.92060000
H      -44.16610000     -38.37180000     -73.96790000
C      -46.64580000     -34.38400000     -73.71530000
H      -47.20250000     -33.86220000     -72.91740000
H      -47.33870000     -34.66400000     -74.54190000
C      -44.48180000     -36.68180000     -69.65190000
H      -45.04380000     -37.47740000     -69.05990000
H      -43.41090000     -36.96470000     -69.59010000
S      -45.38570000     -33.31750000     -74.53090000
S      -44.50680000     -35.03450000     -68.71350000
C      -44.04960000     -33.14510000     -73.30350000
H      -44.35180000     -33.78730000     -72.48720000
H      -43.18320000     -33.52300000     -73.70310000
C      -43.20800000     -34.19610000     -69.80610000
H      -43.35430000     -34.26090000     -70.89000000
H      -42.20880000     -34.67130000     -69.69230000
C      -43.17730000     -32.64220000     -69.51060000
H      -42.81600000     -32.35890000     -68.50640000
H      -42.61290000     -32.19320000     -70.35030000
C      -43.77070000     -31.79690000     -72.80420000
H      -43.52010000     -31.12260000     -73.64750000
H      -42.94610000     -31.77140000     -72.11840000
C      -44.99310000     -31.21760000     -72.10150000
C      -45.88010000     -30.37260000     -72.68130000
C      -45.30210000     -31.51480000     -70.74010000
H      -45.94800000     -30.15530000     -73.73390000
C      -46.53800000     -30.97540000     -70.39100000
C      -44.55660000     -32.06370000     -69.52160000
C      -45.24510000     -31.74100000     -68.38820000
S      -47.34750000     -30.11900000     -71.62590000
S      -46.79900000     -30.82110000     -68.63670000
H      -44.82100000     -31.88630000     -67.41340000
