40
Properties=species:S:1:pos:R:3 #=T CELL(abcABC):=T 1.889726e+02=T 90.00000=T Traj:=T positionsangstrom=T Step:=T 0=T Bead:=T pbc="F F F"
C      -45.38700000     -33.72200000     -75.12760000
C      -45.55870000     -34.85680000     -74.37470000
C      -46.78140000     -35.03820000     -73.69880000
C      -47.71620000     -34.03270000     -73.63770000
C      -47.47090000     -32.89380000     -74.42440000
C      -46.34120000     -32.74430000     -75.18880000
H      -44.55620000     -33.60360000     -75.84540000
H      -46.91770000     -36.01620000     -73.18380000
H      -48.16200000     -32.12910000     -74.47990000
H      -46.33640000     -31.86970000     -75.81050000
C      -49.01860000     -34.28640000     -72.86600000
H      -49.06840000     -35.26750000     -72.49600000
H      -49.88750000     -34.19200000     -73.56320000
C      -44.53960000     -35.97130000     -74.25590000
H      -45.06880000     -36.74840000     -73.56020000
H      -44.30460000     -36.56250000     -75.13890000
S      -49.29840000     -32.98590000     -71.50480000
S      -42.80720000     -35.34340000     -73.72380000
C      -47.55760000     -32.45170000     -71.09350000
H      -46.92580000     -32.33200000     -72.02290000
H      -47.73770000     -31.42620000     -70.67840000
C      -43.00940000     -35.26090000     -71.96900000
H      -42.06790000     -35.04950000     -71.52790000
H      -43.24460000     -36.26610000     -71.62140000
C      -44.00860000     -34.18140000     -71.53630000
H      -44.06940000     -33.53900000     -72.45100000
H      -45.00470000     -34.58660000     -71.63050000
C      -47.00110000     -33.33540000     -69.94070000
H      -46.64580000     -34.28420000     -70.37770000
H      -47.84100000     -33.56290000     -69.31030000
C      -45.92410000     -32.71560000     -69.06250000
C      -46.18130000     -31.90310000     -68.00390000
C      -44.49570000     -32.68630000     -69.35620000
H      -47.13280000     -31.47620000     -67.74620000
C      -43.77150000     -31.98710000     -68.38630000
C      -43.67000000     -33.37700000     -70.29870000
C      -42.32650000     -33.19470000     -69.93370000
S      -44.81760000     -31.28590000     -67.16870000
S      -42.00110000     -32.13470000     -68.55330000
H      -41.53510000     -33.57580000     -70.53700000
