40
Properties=species:S:1:pos:R:3 #=T CELL(abcABC):=T 1.889726e+02=T 90.00000=T Traj:=T positionsangstrom=T Step:=T 0=T Bead:=T pbc="F F F"
C      -43.75150000     -37.35990000     -71.85720000
C      -44.30380000     -36.30810000     -71.12730000
C      -45.14190000     -35.38140000     -71.77150000
C      -45.45750000     -35.47220000     -73.10330000
C      -44.94420000     -36.56400000     -73.85890000
C      -44.06440000     -37.42410000     -73.22750000
H      -43.22080000     -38.11960000     -71.32840000
H      -45.53070000     -34.51810000     -71.17290000
H      -45.17770000     -36.79010000     -74.93640000
H      -43.75360000     -38.33880000     -73.84620000
C      -46.20040000     -34.40290000     -73.85110000
H      -46.93620000     -33.86370000     -73.17900000
H      -46.91720000     -34.79520000     -74.62670000
C      -44.13350000     -36.27350000     -69.64500000
H      -45.11220000     -36.64280000     -69.14660000
H      -43.41890000     -37.05660000     -69.33490000
S      -44.87920000     -33.38310000     -74.64380000
S      -43.80160000     -34.68740000     -68.74060000
C      -43.91470000     -32.62690000     -73.26870000
H      -43.91760000     -33.21130000     -72.32350000
H      -42.85690000     -32.53150000     -73.69920000
C      -42.92330000     -33.55680000     -69.91160000
H      -43.05570000     -33.92110000     -70.89820000
H      -41.85340000     -33.53070000     -69.63330000
C      -43.45980000     -32.13440000     -69.68110000
H      -42.99420000     -31.83790000     -68.75460000
H      -42.98460000     -31.45980000     -70.42190000
C      -44.41530000     -31.22860000     -72.89030000
H      -44.47210000     -30.63460000     -73.79020000
H      -43.47240000     -30.78480000     -72.44900000
C      -45.71020000     -31.20410000     -72.04320000
C      -46.92630000     -30.85310000     -72.59760000
C      -45.87970000     -31.54930000     -70.68330000
H      -47.04780000     -30.42030000     -73.59240000
C      -47.19390000     -31.38670000     -70.24150000
C      -44.96190000     -31.88270000     -69.61440000
C      -45.57650000     -32.08750000     -68.42180000
S      -48.27650000     -30.81890000     -71.44910000
S      -47.29140000     -31.77460000     -68.48160000
H      -45.01100000     -32.14350000     -67.48690000
