40
Properties=species:S:1:pos:R:3 #=T CELL(abcABC):=T 1.889726e+02=T 90.00000=T Traj:=T positionsangstrom=T Step:=T 0=T Bead:=T pbc="F F F"
C      -43.80950000     -37.44110000     -71.82210000
C      -44.47010000     -36.45620000     -70.97310000
C      -45.31070000     -35.49030000     -71.61430000
C      -45.42800000     -35.41810000     -73.02280000
C      -44.84430000     -36.44010000     -73.78940000
C      -44.04760000     -37.45860000     -73.16260000
H      -43.16400000     -38.18500000     -71.43330000
H      -45.87340000     -34.89780000     -70.95860000
H      -44.82650000     -36.39710000     -74.88380000
H      -43.53660000     -38.13810000     -73.79010000
C      -46.25790000     -34.31260000     -73.68530000
H      -46.80890000     -33.80390000     -72.91110000
H      -46.79320000     -34.85360000     -74.39730000
C      -44.29490000     -36.52960000     -69.47060000
H      -45.20700000     -36.78690000     -68.99900000
H      -43.59640000     -37.31200000     -69.24690000
S      -45.19860000     -33.19240000     -74.69990000
S      -43.82790000     -34.93480000     -68.62250000
C      -44.03320000     -32.56030000     -73.49530000
H      -44.00260000     -33.23640000     -72.64360000
H      -43.11150000     -32.59060000     -73.99790000
C      -43.15390000     -33.88260000     -69.90500000
H      -43.40320000     -34.28170000     -70.92190000
H      -42.08790000     -34.08620000     -69.92150000
C      -43.37890000     -32.37040000     -69.70890000
H      -42.95040000     -32.06520000     -68.74880000
H      -42.95090000     -31.87550000     -70.62500000
C      -44.22130000     -31.05910000     -72.97980000
H      -44.30790000     -30.31410000     -73.80560000
H      -43.33450000     -30.70820000     -72.39550000
C      -45.51680000     -30.99780000     -72.10540000
C      -46.73550000     -30.68930000     -72.66880000
C      -45.68080000     -31.39090000     -70.68690000
H      -46.83190000     -30.24050000     -73.69400000
C      -47.01310000     -31.26140000     -70.28220000
C      -44.85040000     -31.99120000     -69.61940000
C      -45.58130000     -32.17490000     -68.47960000
S      -48.10520000     -30.74910000     -71.53280000
S      -47.23240000     -31.64650000     -68.57010000
H      -45.21720000     -32.60030000     -67.59960000
