40
Properties=species:S:1:pos:R:3 #=T CELL(abcABC):=T 1.889726e+02=T 90.00000=T Traj:=T positionsangstrom=T Step:=T 0=T Bead:=T pbc="F F F"
C      -43.77330000     -37.50240000     -71.76970000
C      -44.01250000     -36.27230000     -71.07030000
C      -44.67860000     -35.29790000     -71.73750000
C      -45.13380000     -35.48680000     -73.08560000
C      -44.94900000     -36.67730000     -73.77940000
C      -44.28780000     -37.73830000     -73.04980000
H      -43.46070000     -38.41820000     -71.19690000
H      -44.94500000     -34.32950000     -71.31130000
H      -45.37080000     -36.75900000     -74.77950000
H      -44.18070000     -38.71590000     -73.42420000
C      -45.89940000     -34.28880000     -73.72660000
H      -46.29700000     -33.64440000     -72.91580000
H      -46.65410000     -34.72430000     -74.38200000
C      -43.46470000     -36.18720000     -69.64590000
H      -43.79640000     -37.02950000     -69.08810000
H      -42.31300000     -36.24960000     -69.81780000
S      -44.75500000     -33.23270000     -74.79680000
S      -43.90990000     -34.60370000     -68.77110000
C      -43.82100000     -32.08790000     -73.63970000
H      -43.35500000     -32.70550000     -72.81340000
H      -43.08170000     -31.62110000     -74.28060000
C      -42.95290000     -33.25670000     -69.77550000
H      -42.92990000     -33.69070000     -70.78550000
H      -41.96660000     -33.20940000     -69.39090000
C      -43.49520000     -31.79770000     -69.62730000
H      -43.08850000     -31.47060000     -68.62490000
H      -43.14850000     -31.25000000     -70.47700000
C      -44.71570000     -30.88340000     -72.93720000
H      -44.97230000     -30.22690000     -73.81990000
H      -43.99960000     -30.27350000     -72.33230000
C      -45.88410000     -31.16410000     -72.01730000
C      -47.16880000     -31.11300000     -72.57400000
C      -45.96720000     -31.44290000     -70.64100000
H      -47.38800000     -31.15230000     -73.59940000
C      -47.29770000     -31.58660000     -70.21680000
C      -45.03290000     -31.76900000     -69.59250000
C      -45.70720000     -31.90820000     -68.39690000
S      -48.47400000     -31.43680000     -71.42980000
S      -47.42800000     -31.94540000     -68.51250000
H      -45.20870000     -32.21210000     -67.48040000
