40
Properties=species:S:1:pos:R:3 #=T CELL(abcABC):=T 1.889726e+02=T 90.00000=T Traj:=T positionsangstrom=T Step:=T 0=T Bead:=T pbc="F F F"
C      -43.92550000     -37.48980000     -71.72700000
C      -44.64800000     -36.65440000     -70.92970000
C      -45.41270000     -35.59920000     -71.47740000
C      -45.40830000     -35.36680000     -72.86440000
C      -44.59880000     -36.22170000     -73.67430000
C      -43.91470000     -37.27600000     -73.11850000
H      -43.20770000     -38.27470000     -71.38820000
H      -45.95430000     -34.97990000     -70.84230000
H      -44.64440000     -36.13470000     -74.76860000
H      -43.38280000     -37.98480000     -73.66460000
C      -46.28550000     -34.32710000     -73.38640000
H      -46.80050000     -33.71320000     -72.57860000
H      -47.13440000     -34.73810000     -74.01270000
C      -44.46420000     -36.65930000     -69.42430000
H      -45.42740000     -36.86280000     -68.93600000
H      -43.63240000     -37.44050000     -69.16080000
S      -45.56110000     -33.09040000     -74.58440000
S      -43.90700000     -35.06420000     -68.65140000
C      -43.91520000     -32.63800000     -73.74850000
H      -43.73620000     -33.54600000     -73.08420000
H      -43.08860000     -32.71830000     -74.45770000
C      -43.08390000     -34.00700000     -69.91240000
H      -43.42170000     -34.28300000     -70.97050000
H      -42.01200000     -34.17900000     -69.78230000
C      -43.38300000     -32.45660000     -69.74690000
H      -42.75580000     -32.07130000     -68.93950000
H      -42.94730000     -31.92300000     -70.59500000
C      -44.05730000     -31.27720000     -72.95970000
H      -43.97220000     -30.50960000     -73.75930000
H      -43.30610000     -31.22650000     -72.23670000
C      -45.40120000     -31.19430000     -72.23720000
C      -46.54250000     -30.63570000     -72.77300000
C      -45.62760000     -31.59650000     -70.82060000
H      -46.73600000     -30.34540000     -73.80790000
C      -46.92420000     -31.31890000     -70.39500000
C      -44.84110000     -32.07610000     -69.68150000
C      -45.51720000     -32.00690000     -68.48070000
S      -47.95440000     -30.45030000     -71.56820000
S      -47.21570000     -31.55630000     -68.67620000
H      -45.20150000     -32.48990000     -67.60120000
