40
Properties=species:S:1:pos:R:3 #=T CELL(abcABC):=T 1.889726e+02=T 90.00000=T Traj:=T positionsangstrom=T Step:=T 0=T Bead:=T pbc="F F F"
C      -43.79180000     -37.38700000     -71.75650000
C      -44.25130000     -36.27830000     -71.05390000
C      -45.03260000     -35.32660000     -71.73280000
C      -45.32160000     -35.47730000     -73.11390000
C      -44.87510000     -36.63690000     -73.81140000
C      -44.23090000     -37.63830000     -73.11040000
H      -42.95960000     -37.96780000     -71.34710000
H      -45.45090000     -34.45820000     -71.16690000
H      -45.11050000     -36.66100000     -74.88760000
H      -43.74120000     -38.46940000     -73.71040000
C      -45.99090000     -34.36990000     -73.94610000
H      -46.49830000     -33.71530000     -73.30710000
H      -46.70490000     -34.72600000     -74.74230000
C      -43.70790000     -36.17920000     -69.65760000
H      -44.24240000     -36.89390000     -69.04370000
H      -42.66320000     -36.50340000     -69.64840000
S      -44.74870000     -33.27710000     -74.80580000
S      -43.80310000     -34.56720000     -68.75440000
C      -43.85220000     -32.52540000     -73.27020000
H      -43.75040000     -33.18910000     -72.40280000
H      -42.83620000     -32.37210000     -73.53910000
C      -42.95590000     -33.36140000     -69.87670000
H      -43.14740000     -33.64660000     -70.92180000
H      -41.83860000     -33.30920000     -69.78050000
C      -43.49690000     -32.01650000     -69.65370000
H      -43.05000000     -31.53030000     -68.75160000
H      -43.09960000     -31.37200000     -70.41000000
C      -44.56110000     -31.21330000     -72.91570000
H      -44.94830000     -30.66020000     -73.75960000
H      -43.88350000     -30.61710000     -72.35150000
C      -45.80800000     -31.24150000     -72.01220000
C      -47.05430000     -30.98130000     -72.58730000
C      -45.93930000     -31.60110000     -70.65030000
H      -47.11950000     -30.79150000     -73.61330000
C      -47.28940000     -31.53970000     -70.24170000
C      -44.97950000     -31.90990000     -69.57250000
C      -45.62730000     -31.93790000     -68.37860000
S      -48.41920000     -31.06870000     -71.40380000
S      -47.40280000     -31.82350000     -68.51170000
H      -45.00770000     -32.29940000     -67.53320000
