40
Properties=species:S:1:pos:R:3 #=T CELL(abcABC):=T 1.889726e+02=T 90.00000=T Traj:=T positionsangstrom=T Step:=T 0=T Bead:=T pbc="F F F"
C      -42.31280000     -36.72160000     -71.88850000
C      -43.12260000     -35.89630000     -71.11650000
C      -44.19370000     -35.23060000     -71.75090000
C      -44.34950000     -35.20770000     -73.14650000
C      -43.49250000     -35.96790000     -73.96420000
C      -42.58290000     -36.77990000     -73.33220000
H      -41.56910000     -37.41370000     -71.50580000
H      -44.90200000     -34.60840000     -71.20000000
H      -43.54320000     -35.86450000     -75.07360000
H      -41.79470000     -37.27180000     -73.97240000
C      -45.62840000     -34.54170000     -73.63080000
H      -46.36130000     -34.41090000     -72.82740000
H      -46.22320000     -35.17840000     -74.34050000
C      -42.85110000     -35.94030000     -69.60330000
H      -43.15000000     -36.94060000     -69.19540000
H      -41.79210000     -35.85450000     -69.47760000
S      -45.42250000     -32.94570000     -74.58270000
S      -43.72010000     -34.55010000     -68.65390000
C      -44.33170000     -31.96600000     -73.46590000
H      -43.78810000     -32.72030000     -72.82660000
H      -43.48300000     -31.44480000     -74.03310000
C      -43.20710000     -33.17790000     -69.70640000
H      -43.09340000     -33.47030000     -70.73070000
H      -42.20060000     -32.98030000     -69.41470000
C      -44.03740000     -31.89780000     -69.39560000
H      -43.82270000     -31.71500000     -68.36810000
H      -43.65970000     -31.02410000     -69.91960000
C      -45.00770000     -30.92260000     -72.65460000
H      -45.05490000     -29.98990000     -73.22340000
H      -44.29570000     -30.64890000     -71.91610000
C      -46.26380000     -31.29950000     -71.99640000
C      -47.44710000     -31.37310000     -72.64540000
C      -46.42410000     -31.63340000     -70.56260000
H      -47.48510000     -31.01470000     -73.63120000
C      -47.76640000     -32.02570000     -70.33320000
C      -45.51960000     -31.90930000     -69.44710000
C      -46.22250000     -32.47980000     -68.43860000
S      -48.91050000     -31.68080000     -71.62820000
S      -47.94760000     -32.67350000     -68.76430000
H      -45.80330000     -32.78940000     -67.51540000
