40
Properties=species:S:1:pos:R:3 #=T CELL(abcABC):=T 1.889726e+02=T 90.00000=T Traj:=T positionsangstrom=T Step:=T 0=T Bead:=T pbc="F F F"
C      -41.85750000     -33.40070000     -68.80910000
C      -42.96010000     -34.21530000     -68.80930000
C      -43.07640000     -35.20270000     -69.80870000
C      -42.22840000     -35.29700000     -70.93070000
C      -41.25520000     -34.30600000     -71.00930000
C      -41.01770000     -33.42030000     -69.93650000
H      -41.57300000     -32.73040000     -67.96240000
H      -43.81210000     -35.98390000     -69.73540000
H      -40.56700000     -34.04530000     -71.82850000
H      -40.26430000     -32.67780000     -70.21880000
C      -42.38030000     -36.30750000     -72.02210000
H      -42.73130000     -37.23150000     -71.65840000
H      -41.43800000     -36.54390000     -72.43540000
C      -43.87770000     -34.11630000     -67.56210000
H      -44.46330000     -34.98580000     -67.57650000
H      -43.34650000     -33.90080000     -66.56990000
S      -43.77750000     -35.97540000     -73.26020000
S      -44.79200000     -32.46550000     -67.71170000
C      -43.86600000     -34.13960000     -73.41750000
H      -42.82490000     -33.75320000     -73.29030000
H      -44.09680000     -33.92790000     -74.53270000
C      -45.83640000     -32.81440000     -69.22740000
H      -46.87410000     -33.13880000     -68.93740000
H      -45.52040000     -33.68130000     -69.83110000
C      -46.06960000     -31.47080000     -70.05530000
H      -46.44280000     -30.74680000     -69.27020000
H      -45.07060000     -31.19070000     -70.45740000
C      -44.84550000     -33.39360000     -72.47950000
H      -44.40200000     -32.50360000     -72.04200000
H      -44.93270000     -34.12900000     -71.56550000
C      -46.25980000     -33.21750000     -72.88230000
C      -46.81150000     -33.80760000     -74.04120000
C      -47.19270000     -32.40070000     -72.23690000
H      -46.23640000     -34.39510000     -74.70810000
C      -48.38500000     -32.33940000     -72.87510000
C      -47.13040000     -31.51570000     -71.10910000
C      -48.27930000     -30.73570000     -70.99870000
S      -48.43550000     -33.34350000     -74.27510000
S      -49.50000000     -31.13600000     -72.21160000
H      -48.44240000     -29.92880000     -70.39300000
