40
Properties=species:S:1:pos:R:3 #=T CELL(abcABC):=T 1.889726e+02=T 90.00000=T Traj:=T positionsangstrom=T Step:=T 0=T Bead:=T pbc="F F F"
C      -41.84150000     -35.55630000     -71.92210000
C      -43.05460000     -35.58790000     -71.14750000
C      -44.31220000     -35.44720000     -71.77940000
C      -44.35200000     -35.28680000     -73.17450000
C      -43.17110000     -35.49110000     -73.97700000
C      -41.94290000     -35.73350000     -73.32560000
H      -40.90550000     -35.69070000     -71.43590000
H      -45.23020000     -35.23300000     -71.17690000
H      -43.20260000     -35.34290000     -75.05880000
H      -41.05000000     -35.65850000     -73.92610000
C      -45.62340000     -34.67350000     -73.74290000
H      -46.48030000     -34.51180000     -73.03690000
H      -46.03700000     -35.43910000     -74.48640000
C      -42.89720000     -35.62370000     -69.59590000
H      -43.11250000     -36.66210000     -69.27100000
H      -41.84150000     -35.41870000     -69.36970000
S      -45.20850000     -33.15390000     -74.69660000
S      -43.84980000     -34.35100000     -68.64290000
C      -44.29250000     -32.21760000     -73.43910000
H      -43.88670000     -32.80950000     -72.61830000
H      -43.34080000     -31.82260000     -73.77860000
C      -43.25870000     -32.89050000     -69.67460000
H      -43.29960000     -33.19170000     -70.70200000
H      -42.20420000     -32.71850000     -69.47310000
C      -44.27700000     -31.81090000     -69.20690000
H      -43.96780000     -31.60040000     -68.16960000
H      -44.02510000     -30.90940000     -69.70970000
C      -45.07570000     -31.11670000     -72.60920000
H      -45.33560000     -30.26960000     -73.26300000
H      -44.33800000     -30.72990000     -71.89690000
C      -46.36100000     -31.60870000     -71.95400000
C      -47.51410000     -31.77240000     -72.72230000
C      -46.50340000     -31.95490000     -70.58250000
H      -47.68320000     -31.77430000     -73.81730000
C      -47.86260000     -32.20380000     -70.31070000
C      -45.71270000     -32.14260000     -69.38160000
C      -46.46990000     -32.48580000     -68.27990000
S      -48.87030000     -32.20820000     -71.73610000
S      -48.16230000     -32.74060000     -68.66770000
H      -46.05350000     -32.64370000     -67.36280000
