40
Properties=species:S:1:pos:R:3 #=T CELL(abcABC):=T 1.889726e+02=T 90.00000=T Traj:=T positionsangstrom=T Step:=T 0=T Bead:=T pbc="F F F"
C      -45.44870000     -33.93790000     -75.25650000
C      -45.53780000     -35.06260000     -74.40350000
C      -46.68510000     -35.17140000     -73.61710000
C      -47.76070000     -34.23510000     -73.76270000
C      -47.56320000     -33.12020000     -74.55900000
C      -46.39770000     -32.99570000     -75.27680000
H      -44.50420000     -33.70890000     -75.71060000
H      -46.74700000     -35.91250000     -72.82310000
H      -48.36810000     -32.32190000     -74.57050000
H      -46.23420000     -32.12200000     -75.94160000
C      -48.85130000     -34.31460000     -72.70670000
H      -48.56600000     -35.20220000     -71.99090000
H      -49.85800000     -34.43240000     -73.13320000
C      -44.36080000     -36.13020000     -74.27660000
H      -44.62600000     -36.83900000     -73.45770000
H      -44.13330000     -36.60280000     -75.32970000
S      -48.99490000     -32.74530000     -71.74400000
S      -42.77540000     -35.35750000     -73.74130000
C      -47.34680000     -32.41370000     -70.97940000
H      -46.58880000     -32.39610000     -71.82420000
H      -47.40790000     -31.36690000     -70.60610000
C      -42.99830000     -35.04510000     -71.90790000
H      -42.11970000     -34.62020000     -71.47790000
H      -43.12780000     -35.98440000     -71.40350000
C      -44.06800000     -33.96020000     -71.61790000
H      -44.20820000     -33.32500000     -72.53670000
H      -45.00620000     -34.53680000     -71.48670000
C      -47.03100000     -33.41270000     -69.82820000
H      -46.94240000     -34.42170000     -70.22740000
H      -47.95400000     -33.46980000     -69.20660000
C      -45.94770000     -32.97350000     -68.87440000
C      -46.26310000     -32.38190000     -67.70350000
C      -44.54660000     -32.87020000     -69.19860000
H      -47.23050000     -32.33950000     -67.23210000
C      -43.92930000     -32.04670000     -68.25450000
C      -43.70060000     -33.17370000     -70.35480000
C      -42.40340000     -32.68960000     -70.13580000
S      -44.93570000     -31.52030000     -66.96720000
S      -42.22830000     -31.64570000     -68.72990000
H      -41.60810000     -32.74290000     -70.90310000
