40
Properties=species:S:1:pos:R:3 #=T CELL(abcABC):=T 1.889726e+02=T 90.00000=T Traj:=T positionsangstrom=T Step:=T 0=T Bead:=T pbc="F F F"
C      -41.09390000     -34.82860000     -71.21810000
C      -42.36400000     -34.89250000     -70.60950000
C      -43.51650000     -34.97040000     -71.43220000
C      -43.38460000     -35.02760000     -72.81550000
C      -42.12570000     -34.98180000     -73.47710000
C      -40.93300000     -34.84090000     -72.62170000
H      -40.22180000     -34.60570000     -70.68370000
H      -44.45580000     -34.93900000     -70.96430000
H      -42.06070000     -35.06720000     -74.57270000
H      -40.01280000     -34.82470000     -73.13500000
C      -44.57130000     -35.10350000     -73.78760000
H      -45.56290000     -35.44350000     -73.37030000
H      -44.31270000     -35.87930000     -74.58840000
C      -42.50160000     -34.72100000     -69.12380000
H      -42.47470000     -35.66510000     -68.49710000
H      -41.65330000     -34.17060000     -68.73260000
S      -44.81400000     -33.57070000     -74.74590000
S      -44.07420000     -33.72220000     -68.69980000
C      -44.60000000     -32.25950000     -73.45390000
H      -44.12930000     -32.77570000     -72.61950000
H      -43.88420000     -31.51860000     -73.81390000
C      -43.82310000     -32.09300000     -69.61390000
H      -43.59890000     -32.21350000     -70.63500000
H      -42.94870000     -31.53400000     -69.19870000
C      -44.97840000     -31.10570000     -69.38560000
H      -44.86440000     -30.85220000     -68.36700000
H      -44.88350000     -30.25210000     -70.00150000
C      -45.86810000     -31.33520000     -72.97920000
H      -46.16590000     -30.78270000     -73.82070000
H      -45.42770000     -30.61440000     -72.21610000
C      -47.04230000     -32.00360000     -72.30350000
C      -48.08370000     -32.44270000     -73.00740000
C      -47.13820000     -32.25360000     -70.86410000
H      -48.31210000     -32.41660000     -74.08550000
C      -48.25370000     -32.97920000     -70.56560000
C      -46.31390000     -31.86520000     -69.67860000
C      -46.89120000     -32.41630000     -68.58560000
S      -49.22840000     -33.34050000     -71.97710000
S      -48.37830000     -33.32480000     -68.86240000
H      -46.55830000     -32.52230000     -67.53320000
