40
Properties=species:S:1:pos:R:3 #=T CELL(abcABC):=T 1.889726e+02=T 90.00000=T Traj:=T positionsangstrom=T Step:=T 0=T Bead:=T pbc="F F F"
C      -41.76600000     -32.90830000     -69.72190000
C      -42.80900000     -33.81780000     -69.32820000
C      -43.05380000     -34.83870000     -70.21690000
C      -42.40980000     -35.03130000     -71.46450000
C      -41.31960000     -34.15710000     -71.71290000
C      -41.01490000     -33.05550000     -70.86220000
H      -41.46270000     -32.01150000     -69.18410000
H      -43.97830000     -35.47260000     -70.00170000
H      -40.65810000     -34.16260000     -72.59900000
H      -40.16570000     -32.34900000     -71.03430000
C      -42.78330000     -36.05490000     -72.44010000
H      -43.07290000     -36.86900000     -71.87150000
H      -41.89390000     -36.42310000     -73.06100000
C      -43.35010000     -33.78640000     -67.93770000
H      -44.17200000     -34.55630000     -68.02810000
H      -42.62700000     -33.95460000     -67.13840000
S      -44.11430000     -35.57940000     -73.60090000
S      -44.17080000     -32.10630000     -67.51840000
C      -44.04320000     -33.66270000     -74.03350000
H      -42.97050000     -33.40570000     -74.11860000
H      -44.40520000     -33.64240000     -75.04280000
C      -45.79810000     -32.39460000     -68.28360000
H      -46.47330000     -31.59480000     -67.83970000
H      -46.02580000     -33.39600000     -68.01560000
C      -45.72670000     -32.24680000     -69.82800000
H      -45.25000000     -31.36760000     -70.19930000
H      -45.07380000     -32.93500000     -70.26470000
C      -44.75760000     -32.74280000     -73.07590000
H      -44.45090000     -31.74870000     -73.44430000
H      -44.42380000     -32.82920000     -72.02240000
C      -46.28990000     -32.78140000     -73.17470000
C      -47.01720000     -32.82140000     -74.33600000
C      -47.13410000     -32.82310000     -72.01510000
H      -46.70540000     -32.69700000     -75.34730000
C      -48.46900000     -33.02240000     -72.32760000
C      -47.05130000     -32.55450000     -70.58570000
C      -48.28660000     -32.42170000     -69.93250000
S      -48.71810000     -33.02360000     -74.00800000
S      -49.61760000     -32.70350000     -71.02040000
H      -48.51130000     -32.08400000     -68.96650000
