40
Properties=species:S:1:pos:R:3 #=T CELL(abcABC):=T 1.889726e+02=T 90.00000=T Traj:=T positionsangstrom=T Step:=T 0=T Bead:=T pbc="F F F"
C      -41.33530000     -33.09410000     -69.70530000
C      -42.44300000     -33.95330000     -69.37720000
C      -42.83880000     -34.90730000     -70.28640000
C      -42.21080000     -34.90110000     -71.63650000
C      -41.26720000     -33.90250000     -71.97370000
C      -40.76040000     -33.03850000     -70.98130000
H      -40.96470000     -32.42460000     -68.94450000
H      -43.63100000     -35.55680000     -70.09170000
H      -40.92250000     -33.85860000     -73.00610000
H      -39.99210000     -32.35850000     -71.17470000
C      -42.74540000     -35.89950000     -72.56870000
H      -42.69450000     -36.97410000     -72.15180000
H      -42.10080000     -35.80220000     -73.45110000
C      -43.11140000     -33.75920000     -68.07810000
H      -43.97710000     -34.39230000     -68.09510000
H      -42.39140000     -33.96690000     -67.32430000
S      -44.56790000     -35.65070000     -73.07180000
S      -43.88530000     -32.07710000     -67.74570000
C      -44.47260000     -34.03960000     -73.97050000
H      -43.40630000     -33.91980000     -74.33310000
H      -45.04260000     -34.25560000     -74.90140000
C      -45.57760000     -32.04210000     -68.73330000
H      -45.67130000     -31.02110000     -69.12570000
H      -46.32960000     -32.19040000     -67.96530000
C      -45.72410000     -33.09140000     -69.77430000
H      -44.91070000     -33.05490000     -70.48470000
H      -45.53470000     -34.06130000     -69.26380000
C      -44.92720000     -32.83040000     -73.16260000
H      -44.61800000     -31.89390000     -73.64220000
H      -44.54970000     -32.84550000     -72.12940000
C      -46.42160000     -32.64320000     -73.09830000
C      -47.10840000     -32.47210000     -74.23610000
C      -47.28180000     -32.87790000     -71.92510000
H      -46.79360000     -32.32720000     -75.30190000
C      -48.62700000     -32.82530000     -72.34250000
C      -47.07530000     -32.93060000     -70.46930000
C      -48.27830000     -32.77390000     -69.82580000
S      -48.86540000     -32.53510000     -74.00420000
S      -49.64330000     -32.75950000     -70.94020000
H      -48.35990000     -32.76050000     -68.72030000
