40
Properties=species:S:1:pos:R:3 #=T CELL(abcABC):=T 1.889726e+02=T 90.00000=T Traj:=T positionsangstrom=T Step:=T 0=T Bead:=T pbc="F F F"
C      -41.41270000     -33.01390000     -69.78890000
C      -42.48300000     -33.82880000     -69.46970000
C      -42.96570000     -34.75340000     -70.40870000
C      -42.19950000     -34.91180000     -71.55020000
C      -41.04780000     -34.18520000     -71.85570000
C      -40.74060000     -33.11600000     -71.00060000
H      -41.22150000     -32.21080000     -68.99320000
H      -43.86060000     -35.34150000     -70.15280000
H      -40.51460000     -34.51120000     -72.77220000
H      -39.90200000     -32.42730000     -71.10090000
C      -42.74030000     -35.81960000     -72.60700000
H      -42.65730000     -36.80220000     -72.38280000
H      -42.15480000     -35.64250000     -73.52340000
C      -43.16400000     -33.79460000     -68.09990000
H      -43.99630000     -34.57670000     -67.86680000
H      -42.41790000     -33.94970000     -67.31090000
S      -44.60000000     -35.56530000     -72.90780000
S      -43.83320000     -32.12680000     -67.86020000
C      -44.47470000     -34.08750000     -74.06140000
H      -43.46210000     -33.77820000     -74.22630000
H      -44.90280000     -34.26160000     -75.01420000
C      -45.45140000     -32.02320000     -68.79530000
H      -45.50750000     -30.99040000     -69.24750000
H      -46.24430000     -32.02240000     -68.03730000
C      -45.65530000     -33.08850000     -69.82780000
H      -44.94890000     -32.85820000     -70.60500000
H      -45.43400000     -34.09840000     -69.42590000
C      -45.07910000     -32.81750000     -73.44510000
H      -44.75690000     -32.12240000     -74.25510000
H      -44.36400000     -32.48650000     -72.66270000
C      -46.51820000     -32.69310000     -73.16640000
C      -47.28310000     -32.59870000     -74.27880000
C      -47.27140000     -32.79870000     -71.95640000
H      -46.99720000     -32.34690000     -75.29110000
C      -48.62600000     -32.70070000     -72.21420000
C      -47.01290000     -33.02800000     -70.54730000
C      -48.13920000     -33.05660000     -69.79430000
S      -48.95980000     -32.43860000     -73.93730000
S      -49.55860000     -32.76680000     -70.73940000
H      -48.17160000     -33.23150000     -68.71940000
