40
Properties=species:S:1:pos:R:3 #=T CELL(abcABC):=T 1.889726e+02=T 90.00000=T Traj:=T positionsangstrom=T Step:=T 0=T Bead:=T pbc="F F F"
C      -41.01260000     -34.43060000     -71.04990000
C      -42.29730000     -34.57440000     -70.49740000
C      -43.44370000     -34.82040000     -71.28890000
C      -43.33100000     -34.79520000     -72.71280000
C      -42.02250000     -34.74570000     -73.24980000
C      -40.96390000     -34.58240000     -72.41320000
H      -40.16020000     -34.24870000     -70.38440000
H      -44.42140000     -34.85260000     -70.72820000
H      -41.88410000     -34.97220000     -74.27960000
H      -39.91120000     -34.68530000     -72.93140000
C      -44.57180000     -34.93930000     -73.53300000
H      -45.49360000     -35.06100000     -72.86050000
H      -44.70670000     -35.83400000     -74.15350000
C      -42.42230000     -34.63130000     -68.98730000
H      -42.60140000     -35.66600000     -68.64040000
H      -41.51340000     -34.43650000     -68.39580000
S      -44.67680000     -33.41900000     -74.57200000
S      -43.70710000     -33.49880000     -68.36580000
C      -44.66190000     -32.10320000     -73.26920000
H      -44.37510000     -32.53140000     -72.31110000
H      -43.87860000     -31.39330000     -73.52030000
C      -43.71430000     -32.15960000     -69.66290000
H      -43.46410000     -32.49380000     -70.69760000
H      -42.92090000     -31.45970000     -69.37550000
C      -45.11990000     -31.42960000     -69.76890000
H      -45.11310000     -30.72690000     -68.96140000
H      -45.06750000     -30.77420000     -70.63130000
C      -45.98970000     -31.44380000     -73.03660000
H      -46.39440000     -30.96450000     -73.99800000
H      -45.79150000     -30.61340000     -72.34920000
C      -47.09990000     -32.27090000     -72.48410000
C      -48.16230000     -32.75240000     -73.20190000
C      -47.16590000     -32.58480000     -71.14060000
H      -48.34620000     -32.70110000     -74.24760000
C      -48.38480000     -33.25830000     -70.78730000
C      -46.42360000     -32.25470000     -69.94800000
C      -47.01850000     -32.62390000     -68.77390000
S      -49.37680000     -33.48930000     -72.19150000
S      -48.57740000     -33.45190000     -69.06900000
H      -46.62440000     -32.47610000     -67.76520000
