40
Properties=species:S:1:pos:R:3 #=T CELL(abcABC):=T 1.889726e+02=T 90.00000=T Traj:=T positionsangstrom=T Step:=T 0=T Bead:=T pbc="F F F"
C      -41.05690000     -34.58550000     -71.16180000
C      -42.31760000     -34.77020000     -70.59380000
C      -43.45010000     -34.96610000     -71.40060000
C      -43.28340000     -35.00030000     -72.81490000
C      -41.97830000     -34.93830000     -73.41760000
C      -40.87490000     -34.78320000     -72.53410000
H      -40.21650000     -34.42680000     -70.49470000
H      -44.43100000     -35.20740000     -70.96440000
H      -41.71580000     -34.86210000     -74.46160000
H      -39.83190000     -34.76210000     -72.93410000
C      -44.54900000     -35.01050000     -73.66300000
H      -45.32940000     -35.17700000     -73.03970000
H      -44.51220000     -35.83420000     -74.41070000
C      -42.44310000     -34.55780000     -69.07780000
H      -42.63920000     -35.53830000     -68.66010000
H      -41.48500000     -34.11860000     -68.78670000
S      -44.74300000     -33.44480000     -74.63300000
S      -43.93210000     -33.57140000     -68.45410000
C      -44.62840000     -32.13940000     -73.34650000
H      -44.15080000     -32.53780000     -72.41730000
H      -43.93420000     -31.38720000     -73.72100000
C      -43.78590000     -32.11090000     -69.59150000
H      -43.41470000     -32.55010000     -70.51920000
H      -43.00870000     -31.45440000     -69.14510000
C      -45.10180000     -31.28830000     -69.70230000
H      -45.15770000     -30.38760000     -69.01780000
H      -45.00190000     -30.75040000     -70.70720000
C      -45.96920000     -31.44740000     -73.17720000
H      -46.36330000     -31.47230000     -74.21010000
H      -45.82940000     -30.42740000     -72.89910000
C      -47.01160000     -32.08080000     -72.39080000
C      -48.12770000     -32.58650000     -73.05700000
C      -47.10580000     -32.38980000     -70.98090000
H      -48.37810000     -32.38060000     -74.08080000
C      -48.32390000     -33.14430000     -70.65880000
C      -46.34540000     -32.13160000     -69.73990000
C      -46.99180000     -32.64470000     -68.62180000
S      -49.30260000     -33.36080000     -72.03130000
S      -48.55190000     -33.42100000     -68.97480000
H      -46.67440000     -32.47460000     -67.62060000
