40
Properties=species:S:1:pos:R:3 #=T CELL(abcABC):=T 1.889726e+02=T 90.00000=T Traj:=T positionsangstrom=T Step:=T 0=T Bead:=T pbc="F F F"
C      -41.00120000     -34.48840000     -70.92300000
C      -42.25910000     -34.76680000     -70.32280000
C      -43.37430000     -35.04910000     -71.22370000
C      -43.29280000     -34.90830000     -72.66080000
C      -42.02220000     -34.51670000     -73.14110000
C      -40.93840000     -34.44070000     -72.31040000
H      -40.11830000     -34.34050000     -70.25150000
H      -44.32560000     -35.33520000     -70.72470000
H      -41.82190000     -34.29170000     -74.20750000
H      -39.93070000     -34.10110000     -72.71460000
C      -44.55990000     -34.93240000     -73.46780000
H      -45.43740000     -35.11360000     -72.76010000
H      -44.52450000     -35.70240000     -74.21010000
C      -42.47110000     -34.60540000     -68.85090000
H      -42.82300000     -35.59820000     -68.46080000
H      -41.54860000     -34.38510000     -68.39230000
S      -44.70000000     -33.48170000     -74.51900000
S      -43.66940000     -33.30870000     -68.31490000
C      -44.74450000     -31.86910000     -73.58660000
H      -44.36850000     -32.03940000     -72.59200000
H      -44.09610000     -31.10910000     -74.08980000
C      -43.85800000     -32.15350000     -69.72620000
H      -43.74410000     -32.53840000     -70.74270000
H      -43.13200000     -31.36880000     -69.66660000
C      -45.21420000     -31.37400000     -69.69960000
H      -45.52130000     -30.85930000     -68.80830000
H      -45.02740000     -30.68090000     -70.48370000
C      -46.13690000     -31.31040000     -73.31890000
H      -46.67990000     -30.95660000     -74.15270000
H      -45.98880000     -30.39980000     -72.70450000
C      -47.10280000     -32.20470000     -72.57690000
C      -48.15340000     -32.72350000     -73.25270000
C      -47.20030000     -32.46850000     -71.13520000
H      -48.27860000     -32.60520000     -74.33190000
C      -48.33150000     -33.18420000     -70.85110000
C      -46.42850000     -32.26340000     -69.90070000
C      -47.00780000     -32.84710000     -68.82620000
S      -49.24260000     -33.66110000     -72.21960000
S      -48.57810000     -33.57260000     -69.12810000
H      -46.54410000     -32.71940000     -67.84020000
