40
Properties=species:S:1:pos:R:3 #=T CELL(abcABC):=T 1.889726e+02=T 90.00000=T Traj:=T positionsangstrom=T Step:=T 0=T Bead:=T pbc="F F F"
C      -42.35030000     -34.89390000     -69.30600000
C      -43.71140000     -34.52470000     -69.56860000
C      -44.16950000     -34.51960000     -70.92940000
C      -43.32470000     -34.94650000     -71.97650000
C      -41.97470000     -35.33400000     -71.66980000
C      -41.47650000     -35.29710000     -70.34530000
H      -42.07460000     -34.76160000     -68.26500000
H      -45.28370000     -34.28480000     -71.07380000
H      -41.33250000     -35.68310000     -72.46280000
H      -40.43610000     -35.60320000     -70.27090000
C      -43.92930000     -35.07400000     -73.40280000
H      -45.01630000     -35.15440000     -73.31050000
H      -43.51620000     -35.91580000     -73.85600000
C      -44.63240000     -34.10280000     -68.53410000
H      -45.66500000     -34.20080000     -68.88660000
H      -44.52700000     -34.70460000     -67.69870000
S      -43.44130000     -33.65480000     -74.57830000
S      -44.44500000     -32.30550000     -68.05160000
C      -43.86820000     -32.08420000     -73.64860000
H      -43.37900000     -32.13190000     -72.69670000
H      -43.38840000     -31.25740000     -74.17600000
C      -44.30150000     -31.41540000     -69.66540000
H      -43.91840000     -32.05750000     -70.47870000
H      -43.52170000     -30.66770000     -69.45280000
C      -45.66740000     -30.74280000     -70.04820000
H      -46.06600000     -30.10980000     -69.23700000
H      -45.41860000     -30.09370000     -70.87670000
C      -45.31810000     -31.60260000     -73.44490000
H      -45.67980000     -31.12610000     -74.39550000
H      -45.22820000     -30.72860000     -72.78290000
C      -46.34020000     -32.62630000     -72.93960000
C      -46.97600000     -33.49490000     -73.80210000
C      -46.94010000     -32.55930000     -71.63580000
H      -46.56630000     -33.91950000     -74.70250000
C      -47.96250000     -33.49910000     -71.57590000
C      -46.68360000     -31.78490000     -70.37820000
C      -47.57730000     -32.12480000     -69.39790000
S      -48.20780000     -34.48920000     -72.97690000
S      -48.78470000     -33.38190000     -70.01880000
H      -47.58580000     -31.67030000     -68.34140000
