40
Properties=species:S:1:pos:R:3 #=T CELL(abcABC):=T 1.889726e+02=T 90.00000=T Traj:=T positionsangstrom=T Step:=T 0=T Bead:=T pbc="F F F"
C      -48.81980000     -32.92620000     -71.38290000
C      -47.99770000     -32.50290000     -72.48220000
C      -47.68440000     -33.43870000     -73.44930000
C      -47.98390000     -34.78860000     -73.25360000
C      -48.74650000     -35.21410000     -72.12860000
C      -49.28000000     -34.24130000     -71.26980000
H      -49.14700000     -32.09380000     -70.72200000
H      -47.13410000     -33.16080000     -74.33240000
H      -48.95060000     -36.21250000     -71.85410000
H      -49.81530000     -34.58040000     -70.45460000
C      -47.47240000     -35.76920000     -74.23710000
H      -47.91540000     -35.72150000     -75.29200000
H      -47.76170000     -36.80700000     -73.89650000
C      -47.76900000     -31.04460000     -72.65950000
H      -47.97180000     -30.85560000     -73.71710000
H      -48.57760000     -30.47560000     -72.17300000
S      -45.60670000     -35.59260000     -74.56540000
S      -46.19550000     -30.33390000     -72.16840000
C      -44.60320000     -35.47560000     -72.97000000
H      -44.89650000     -36.22950000     -72.27740000
H      -43.55960000     -35.76570000     -73.28320000
C      -46.09260000     -30.66680000     -70.34080000
H      -46.92450000     -30.03180000     -69.89760000
H      -45.06020000     -30.20630000     -70.14010000
C      -46.10150000     -32.17640000     -69.77400000
H      -46.93010000     -32.24180000     -69.06090000
H      -46.35130000     -32.86940000     -70.62700000
C      -44.69890000     -34.13480000     -72.20470000
H      -45.70980000     -34.06090000     -71.72850000
H      -44.59210000     -33.19130000     -72.76820000
C      -43.57890000     -34.05910000     -71.11650000
C      -42.40750000     -34.75700000     -71.24520000
C      -43.72250000     -33.35740000     -69.90430000
H      -42.17150000     -35.42940000     -72.02800000
C      -42.56110000     -33.48900000     -69.13270000
C      -44.72930000     -32.53100000     -69.26760000
C      -44.18860000     -31.92070000     -68.16520000
S      -41.39810000     -34.56210000     -69.82040000
S      -42.48090000     -32.42190000     -67.77940000
H      -44.71860000     -31.19290000     -67.46810000
