40
Properties=species:S:1:pos:R:3 #=T CELL(abcABC):=T 1.889726e+02=T 90.00000=T Traj:=T positionsangstrom=T Step:=T 0=T Bead:=T pbc="F F F"
C      -43.02490000     -35.17310000     -68.85050000
C      -44.17450000     -34.61190000     -69.44210000
C      -44.33880000     -34.73940000     -70.78720000
C      -43.30880000     -35.38510000     -71.51260000
C      -42.17790000     -35.95420000     -70.91490000
C      -41.98850000     -35.76000000     -69.54930000
H      -42.91920000     -34.96070000     -67.79850000
H      -45.24580000     -34.39380000     -71.31500000
H      -41.49030000     -36.53420000     -71.55270000
H      -41.13450000     -36.20310000     -69.09850000
C      -43.54480000     -35.64020000     -72.99810000
H      -44.55280000     -36.05070000     -73.05830000
H      -42.94650000     -36.42670000     -73.38480000
C      -45.17920000     -33.90450000     -68.64770000
H      -46.05030000     -33.74240000     -69.27410000
H      -45.45210000     -34.46360000     -67.79880000
S      -43.26090000     -34.14200000     -74.15320000
S      -44.42430000     -32.18820000     -68.13100000
C      -43.47760000     -32.60820000     -73.09780000
H      -43.45450000     -33.08840000     -72.15830000
H      -42.55280000     -32.00640000     -73.23200000
C      -44.30880000     -31.26750000     -69.74950000
H      -43.96390000     -31.92870000     -70.54660000
H      -43.51860000     -30.56770000     -69.69860000
C      -45.67090000     -30.56270000     -70.27900000
H      -46.09090000     -29.85000000     -69.48690000
H      -45.37060000     -29.89750000     -71.13860000
C      -44.68260000     -31.69910000     -73.36280000
H      -44.69240000     -31.29720000     -74.35900000
H      -44.58920000     -30.78900000     -72.75680000
C      -46.01440000     -32.37700000     -73.09310000
C      -46.51250000     -33.37310000     -73.93790000
C      -46.83970000     -32.27220000     -71.89620000
H      -46.05480000     -33.55610000     -74.90360000
C      -47.94950000     -33.09570000     -71.98120000
C      -46.80760000     -31.44200000     -70.66620000
C      -47.90350000     -31.70540000     -69.88250000
S      -47.96840000     -34.06110000     -73.41830000
S      -48.97480000     -32.99160000     -70.60890000
H      -48.14260000     -31.33170000     -68.89240000
