40
Properties=species:S:1:pos:R:3 #=T CELL(abcABC):=T 1.889726e+02=T 90.00000=T Traj:=T positionsangstrom=T Step:=T 0=T Bead:=T pbc="F F F"
C      -43.01630000     -34.58270000     -68.66340000
C      -44.34950000     -34.53740000     -69.04300000
C      -44.68950000     -34.93100000     -70.31230000
C      -43.74950000     -35.36830000     -71.20380000
C      -42.40220000     -35.37320000     -70.78590000
C      -42.06720000     -35.08460000     -69.50000000
H      -42.74990000     -34.23030000     -67.69060000
H      -45.75140000     -34.80900000     -70.70370000
H      -41.63230000     -35.69400000     -71.42370000
H      -41.05080000     -35.04780000     -69.18570000
C      -44.23840000     -35.76110000     -72.58920000
H      -45.33130000     -35.75970000     -72.56080000
H      -43.99210000     -36.78510000     -72.81560000
C      -45.37630000     -33.83710000     -68.10540000
H      -46.42480000     -33.95760000     -68.42900000
H      -45.22390000     -34.37340000     -67.11820000
S      -43.47320000     -34.68330000     -73.91110000
S      -44.96030000     -32.06240000     -67.83630000
C      -43.17590000     -33.00930000     -73.17030000
H      -43.08720000     -33.22110000     -72.08850000
H      -42.24550000     -32.62330000     -73.55970000
C      -44.21480000     -31.56110000     -69.49120000
H      -43.77330000     -32.42450000     -69.99570000
H      -43.34920000     -30.95970000     -69.32250000
C      -45.07620000     -30.80610000     -70.47280000
H      -45.43550000     -30.02500000     -69.82390000
H      -44.56200000     -30.44970000     -71.36900000
C      -44.34390000     -32.06950000     -73.65190000
H      -44.20390000     -32.00920000     -74.77360000
H      -44.29570000     -31.04500000     -73.31240000
C      -45.74210000     -32.58900000     -73.44610000
C      -46.44030000     -33.27140000     -74.37960000
C      -46.46200000     -32.42120000     -72.20610000
H      -45.86530000     -33.73800000     -75.24630000
C      -47.73590000     -32.99510000     -72.29200000
C      -46.24850000     -31.64000000     -70.94280000
C      -47.38270000     -31.77710000     -70.16820000
S      -48.03770000     -33.78260000     -73.87980000
S      -48.66010000     -32.79100000     -70.82790000
H      -47.46870000     -31.43530000     -69.14490000
