40
Properties=species:S:1:pos:R:3 #=T CELL(abcABC):=T 1.889726e+02=T 90.00000=T Traj:=T positionsangstrom=T Step:=T 0=T Bead:=T pbc="F F F"
C      -42.68240000     -35.02200000     -69.09160000
C      -43.82860000     -34.49210000     -69.67610000
C      -44.13630000     -34.73470000     -71.00900000
C      -43.26210000     -35.40430000     -71.83250000
C      -42.11010000     -35.94180000     -71.26070000
C      -41.82590000     -35.76520000     -69.90670000
H      -42.30100000     -34.77550000     -68.05810000
H      -44.97050000     -34.21540000     -71.42510000
H      -41.38880000     -36.36450000     -71.95250000
H      -40.85080000     -36.00440000     -69.41810000
C      -43.54330000     -35.43400000     -73.27760000
H      -44.58750000     -35.50700000     -73.48780000
H      -43.04610000     -36.29480000     -73.67670000
C      -44.97360000     -33.89570000     -68.82210000
H      -45.95470000     -33.91460000     -69.28420000
H      -45.08540000     -34.54520000     -67.91860000
S      -43.03800000     -33.96240000     -74.19980000
S      -44.59520000     -32.23240000     -68.10430000
C      -43.45570000     -32.48290000     -73.16760000
H      -43.37690000     -32.95470000     -72.15450000
H      -42.64810000     -31.78630000     -73.24830000
C      -44.49450000     -31.14590000     -69.58650000
H      -43.93620000     -31.64610000     -70.38290000
H      -43.81850000     -30.25490000     -69.30910000
C      -45.75360000     -30.52970000     -70.09560000
H      -46.07990000     -29.85300000     -69.30070000
H      -45.42470000     -29.97620000     -71.02730000
C      -44.82120000     -31.83780000     -73.42670000
H      -44.98430000     -31.63460000     -74.53060000
H      -44.83630000     -30.84670000     -72.87880000
C      -46.11770000     -32.55060000     -73.05270000
C      -46.79480000     -33.37690000     -73.91300000
C      -46.92830000     -32.31020000     -71.83200000
H      -46.42760000     -33.66130000     -74.91660000
C      -48.09860000     -33.14510000     -71.76610000
C      -46.77970000     -31.59540000     -70.49460000
C      -47.80340000     -31.91540000     -69.64750000
S      -48.24290000     -34.12180000     -73.24100000
S      -48.95670000     -33.10660000     -70.27650000
H      -47.89580000     -31.46990000     -68.65350000
