40
Properties=species:S:1:pos:R:3 #=T CELL(abcABC):=T 1.889726e+02=T 90.00000=T Traj:=T positionsangstrom=T Step:=T 0=T Bead:=T pbc="F F F"
C      -42.63970000     -34.94340000     -69.27410000
C      -43.94130000     -34.56730000     -69.69160000
C      -44.31240000     -34.79540000     -71.02820000
C      -43.37670000     -35.34900000     -71.95060000
C      -42.11280000     -35.73010000     -71.48770000
C      -41.73940000     -35.53700000     -70.14940000
H      -42.43190000     -34.91100000     -68.23550000
H      -45.32540000     -34.52120000     -71.33690000
H      -41.43520000     -36.28620000     -72.11820000
H      -40.71230000     -35.89780000     -69.82190000
C      -43.66760000     -35.38050000     -73.39220000
H      -44.74220000     -35.50640000     -73.64800000
H      -43.14420000     -36.23500000     -73.92880000
C      -44.83380000     -33.97050000     -68.66750000
H      -45.76580000     -33.94100000     -69.16280000
H      -44.95730000     -34.56200000     -67.73840000
S      -43.05800000     -33.82540000     -74.26110000
S      -44.43030000     -32.27030000     -68.02270000
C      -43.62550000     -32.41620000     -73.25840000
H      -43.62690000     -32.57790000     -72.18020000
H      -42.84520000     -31.68760000     -73.53730000
C      -44.32850000     -31.29560000     -69.57730000
H      -43.90820000     -32.00420000     -70.30100000
H      -43.60810000     -30.48050000     -69.47650000
C      -45.64210000     -30.68020000     -70.08920000
H      -45.97890000     -29.96860000     -69.38930000
H      -45.33530000     -30.13150000     -71.01120000
C      -45.00800000     -31.74470000     -73.57050000
H      -45.08000000     -31.76690000     -74.62100000
H      -45.07350000     -30.73110000     -73.26970000
C      -46.20500000     -32.49940000     -73.04790000
C      -46.85250000     -33.45100000     -73.81840000
C      -46.78870000     -32.45300000     -71.67110000
H      -46.68840000     -33.79070000     -74.83250000
C      -47.96980000     -33.22130000     -71.66740000
C      -46.82830000     -31.64890000     -70.45400000
C      -47.92950000     -31.84100000     -69.62640000
S      -48.27110000     -34.15460000     -73.10860000
S      -48.89330000     -33.17190000     -70.16800000
H      -48.01400000     -31.39380000     -68.60840000
