40
Properties=species:S:1:pos:R:3 #=T CELL(abcABC):=T 1.889726e+02=T 90.00000=T Traj:=T positionsangstrom=T Step:=T 0=T Bead:=T pbc="F F F"
C      -42.86130000     -35.14080000     -68.98930000
C      -44.01380000     -34.57290000     -69.52870000
C      -44.21080000     -34.71320000     -70.89310000
C      -43.24680000     -35.35890000     -71.67810000
C      -42.12290000     -35.97280000     -71.07850000
C      -41.90340000     -35.84950000     -69.70740000
H      -42.77690000     -35.16180000     -67.86130000
H      -45.11880000     -34.39210000     -71.33830000
H      -41.34150000     -36.44910000     -71.73440000
H      -41.13700000     -36.29060000     -69.11540000
C      -43.44730000     -35.51390000     -73.15640000
H      -44.48450000     -35.78640000     -73.48230000
H      -42.69800000     -36.26860000     -73.47400000
C      -45.01410000     -33.83180000     -68.72190000
H      -46.00680000     -33.73560000     -69.25350000
H      -45.22450000     -34.34660000     -67.79120000
S      -43.17040000     -33.99500000     -74.19180000
S      -44.63100000     -32.11350000     -68.16020000
C      -43.42810000     -32.54880000     -73.11670000
H      -43.32280000     -32.93160000     -72.10020000
H      -42.67230000     -31.73300000     -73.23170000
C      -44.38420000     -31.16870000     -69.85350000
H      -44.03700000     -31.95140000     -70.50130000
H      -43.63770000     -30.43680000     -69.53770000
C      -45.72550000     -30.55690000     -70.25240000
H      -46.08110000     -29.82830000     -69.51780000
H      -45.68890000     -29.97130000     -71.13140000
C      -44.73760000     -31.85090000     -73.30300000
H      -44.59450000     -31.55380000     -74.32370000
H      -44.68300000     -30.91790000     -72.72140000
C      -46.02350000     -32.58080000     -72.98280000
C      -46.62610000     -33.35180000     -73.94510000
C      -46.76720000     -32.47370000     -71.78790000
H      -46.15900000     -33.49030000     -74.95350000
C      -47.92820000     -33.22560000     -71.79020000
C      -46.72210000     -31.65400000     -70.55080000
C      -47.80510000     -31.88460000     -69.71950000
S      -48.19050000     -34.04180000     -73.38500000
S      -49.00170000     -32.99120000     -70.40830000
H      -48.09390000     -31.43700000     -68.82800000
