40
Properties=species:S:1:pos:R:3 #=T CELL(abcABC):=T 1.889726e+02=T 90.00000=T Traj:=T positionsangstrom=T Step:=T 0=T Bead:=T pbc="F F F"
C      -42.91760000     -34.60060000     -68.80090000
C      -44.26500000     -34.46380000     -69.08910000
C      -44.68680000     -34.82970000     -70.35410000
C      -43.83540000     -35.35940000     -71.33930000
C      -42.44230000     -35.45740000     -70.97670000
C      -41.99550000     -35.16690000     -69.67410000
H      -42.49600000     -34.29840000     -67.87340000
H      -45.81850000     -34.81260000     -70.45370000
H      -41.67320000     -35.77180000     -71.68170000
H      -40.96170000     -35.27010000     -69.42750000
C      -44.31770000     -35.60030000     -72.72300000
H      -45.32550000     -35.11960000     -72.96730000
H      -44.27860000     -36.69960000     -72.89740000
C      -45.21010000     -33.91380000     -68.11070000
H      -46.21210000     -34.01930000     -68.47080000
H      -45.25620000     -34.30030000     -67.08370000
S      -43.30290000     -34.74350000     -74.00440000
S      -44.95430000     -32.03610000     -67.76910000
C      -43.28930000     -32.99610000     -73.27590000
H      -43.21900000     -33.08650000     -72.22850000
H      -42.29070000     -32.59810000     -73.55600000
C      -44.12180000     -31.38370000     -69.34690000
H      -43.55930000     -32.34570000     -69.62990000
H      -43.43550000     -30.59020000     -69.09240000
C      -45.10050000     -30.85410000     -70.41140000
H      -45.46880000     -29.80330000     -70.19410000
H      -44.42760000     -30.64420000     -71.28490000
C      -44.38000000     -32.06600000     -73.79510000
H      -44.32000000     -32.05260000     -74.87190000
H      -44.26620000     -31.12130000     -73.37540000
C      -45.82770000     -32.50520000     -73.41740000
C      -46.53250000     -33.23980000     -74.29070000
C      -46.50880000     -32.41020000     -72.10250000
H      -46.20650000     -33.40480000     -75.34040000
C      -47.69020000     -33.09890000     -72.17370000
C      -46.28690000     -31.72790000     -70.82410000
C      -47.47820000     -31.85520000     -70.07910000
S      -48.05440000     -33.84350000     -73.66350000
S      -48.73770000     -32.76960000     -70.84950000
H      -47.75370000     -31.33950000     -69.19870000
