40
Properties=species:S:1:pos:R:3 #=T CELL(abcABC):=T 1.889726e+02=T 90.00000=T Traj:=T positionsangstrom=T Step:=T 0=T Bead:=T pbc="F F F"
C      -47.65840000     -33.18350000     -73.84060000
C      -46.61600000     -32.29700000     -74.11350000
C      -45.32710000     -32.80800000     -74.47750000
C      -45.17470000     -34.15600000     -74.76880000
C      -46.32110000     -34.98580000     -74.67540000
C      -47.54820000     -34.54560000     -74.13320000
H      -48.62930000     -32.76210000     -73.55880000
H      -44.49810000     -32.12960000     -74.65420000
H      -46.23170000     -36.00430000     -74.85890000
H      -48.38560000     -35.15570000     -73.93950000
C      -43.83760000     -34.69670000     -75.19670000
H      -43.32520000     -34.19090000     -75.97480000
H      -44.04620000     -35.73490000     -75.56550000
C      -46.84020000     -30.76740000     -73.97740000
H      -46.50260000     -30.31970000     -74.93760000
H      -47.93810000     -30.58030000     -73.92380000
S      -42.63620000     -34.66310000     -73.75960000
S      -45.96320000     -30.08930000     -72.56960000
C      -43.67480000     -35.31680000     -72.30310000
H      -44.36280000     -36.04400000     -72.69750000
H      -43.02120000     -35.82630000     -71.60890000
C      -46.22490000     -31.25610000     -71.19720000
H      -46.34210000     -32.36570000     -71.44880000
H      -47.18360000     -31.07330000     -70.85460000
C      -45.16260000     -31.09980000     -70.15890000
H      -44.15260000     -31.17590000     -70.63330000
H      -45.05600000     -30.10710000     -69.77540000
C      -44.46650000     -34.16670000     -71.52030000
H      -45.42690000     -34.01350000     -72.05300000
H      -43.80570000     -33.26610000     -71.47980000
C      -44.78830000     -34.55490000     -70.06900000
C      -44.72040000     -35.81760000     -69.55400000
C      -45.16440000     -33.54580000     -69.04870000
H      -44.53340000     -36.76930000     -70.11170000
C      -45.46910000     -34.09340000     -67.80800000
C      -45.33950000     -32.10120000     -68.97130000
C      -45.59950000     -31.59320000     -67.74930000
S      -45.16930000     -35.89440000     -67.78650000
S      -45.69730000     -32.92360000     -66.57050000
H      -45.68090000     -30.58250000     -67.45170000
