40
Properties=species:S:1:pos:R:3 #=T CELL(abcABC):=T 1.889726e+02=T 90.00000=T Traj:=T positionsangstrom=T Step:=T 0=T Bead:=T pbc="F F F"
C      -43.02530000     -34.69020000     -68.52070000
C      -44.39270000     -34.53530000     -68.97830000
C      -44.65460000     -35.01630000     -70.23170000
C      -43.69950000     -35.46910000     -71.20080000
C      -42.43590000     -35.58210000     -70.70660000
C      -42.05490000     -35.17220000     -69.41250000
H      -42.67010000     -34.45430000     -67.50470000
H      -45.65250000     -34.96780000     -70.63740000
H      -41.71340000     -35.96050000     -71.36950000
H      -41.05340000     -35.49670000     -69.11880000
C      -44.07170000     -35.85170000     -72.61690000
H      -45.20650000     -35.88370000     -72.65340000
H      -43.69460000     -36.79450000     -73.02860000
C      -45.43420000     -33.87680000     -68.18660000
H      -46.40540000     -33.94080000     -68.74500000
H      -45.59820000     -34.38360000     -67.23640000
S      -43.41380000     -34.73100000     -73.92620000
S      -45.02950000     -32.06230000     -68.03420000
C      -43.29970000     -33.09280000     -73.16680000
H      -43.41790000     -33.22370000     -72.08510000
H      -42.28590000     -32.68730000     -73.33040000
C      -44.28310000     -31.51260000     -69.58970000
H      -44.08020000     -32.47340000     -70.02160000
H      -43.33610000     -31.07300000     -69.18550000
C      -45.20400000     -30.70890000     -70.49470000
H      -45.57130000     -29.74790000     -70.05490000
H      -44.69080000     -30.38330000     -71.40070000
C      -44.25220000     -31.96290000     -73.68710000
H      -43.99630000     -31.89390000     -74.75320000
H      -43.90880000     -30.91320000     -73.33180000
C      -45.69730000     -32.35940000     -73.40450000
C      -46.34840000     -33.06610000     -74.34730000
C      -46.53550000     -32.15720000     -72.21500000
H      -46.01420000     -33.35020000     -75.35150000
C      -47.75290000     -32.86730000     -72.31520000
C      -46.38220000     -31.58000000     -70.92360000
C      -47.41950000     -31.86040000     -70.03800000
S      -47.91140000     -33.74720000     -73.77040000
S      -48.67610000     -32.85610000     -70.86210000
H      -47.57520000     -31.52550000     -68.99510000
