40
Properties=species:S:1:pos:R:3 #=T CELL(abcABC):=T 1.889726e+02=T 90.00000=T Traj:=T positionsangstrom=T Step:=T 0=T Bead:=T pbc="F F F"
C      -43.31810000     -35.14390000     -68.56540000
C      -44.43450000     -34.55830000     -69.15000000
C      -44.70710000     -34.85120000     -70.50260000
C      -43.87010000     -35.66860000     -71.28060000
C      -42.68550000     -36.07550000     -70.65300000
C      -42.43050000     -35.88360000     -69.29260000
H      -43.18660000     -35.06320000     -67.48350000
H      -45.61430000     -34.29920000     -70.86070000
H      -42.05980000     -36.93430000     -71.14030000
H      -41.57470000     -36.26410000     -68.76520000
C      -44.14430000     -35.64690000     -72.78520000
H      -45.12120000     -35.18540000     -72.92170000
H      -44.11800000     -36.73790000     -73.22270000
C      -45.46340000     -33.72380000     -68.40040000
H      -46.44870000     -33.80260000     -68.84880000
H      -45.55600000     -34.15370000     -67.36240000
S      -42.98370000     -34.54580000     -73.75710000
S      -44.86340000     -31.99560000     -67.92380000
C      -43.14090000     -32.83330000     -72.91980000
H      -43.43690000     -32.84710000     -71.89990000
H      -42.21240000     -32.31790000     -73.03460000
C      -44.14040000     -31.44170000     -69.53770000
H      -43.56520000     -32.22230000     -70.07550000
H      -43.38950000     -30.68120000     -69.37240000
C      -45.23880000     -30.74050000     -70.44040000
H      -45.65990000     -29.95550000     -69.90100000
H      -44.63990000     -30.47020000     -71.27080000
C      -44.25350000     -31.98130000     -73.55230000
H      -44.04340000     -32.00210000     -74.67030000
H      -44.12580000     -30.92970000     -73.21060000
C      -45.68320000     -32.49800000     -73.34480000
C      -46.21480000     -33.27250000     -74.33100000
C      -46.51380000     -32.29230000     -72.15590000
H      -45.83070000     -33.66540000     -75.23510000
C      -47.77070000     -32.83840000     -72.37490000
C      -46.42220000     -31.61030000     -70.88310000
C      -47.58970000     -31.71830000     -70.11460000
S      -47.85060000     -33.80940000     -73.80410000
S      -48.88180000     -32.52510000     -71.02780000
H      -47.80080000     -31.30320000     -69.12090000
