40
Properties=species:S:1:pos:R:3 #=T CELL(abcABC):=T 1.889726e+02=T 90.00000=T Traj:=T positionsangstrom=T Step:=T 0=T Bead:=T pbc="F F F"
C      -47.47350000     -33.73530000     -73.40920000
C      -46.72700000     -32.74890000     -74.09150000
C      -45.59690000     -33.17430000     -74.76340000
C      -45.12440000     -34.53260000     -74.71520000
C      -45.97990000     -35.49780000     -74.06590000
C      -47.20570000     -35.06870000     -73.49160000
H      -48.38030000     -33.36240000     -72.93830000
H      -44.90200000     -32.46500000     -75.22670000
H      -45.76780000     -36.51840000     -74.27650000
H      -47.98770000     -35.71180000     -73.00840000
C      -43.80730000     -34.97330000     -75.08200000
H      -43.40390000     -34.50360000     -75.98340000
H      -43.75550000     -36.09530000     -75.17010000
C      -47.16840000     -31.31210000     -74.08290000
H      -47.04720000     -30.79840000     -75.03700000
H      -48.22150000     -31.21140000     -73.79590000
S      -42.54310000     -34.66760000     -73.70180000
S      -46.10090000     -30.23610000     -72.94350000
C      -43.40760000     -35.18510000     -72.13940000
H      -44.24110000     -35.76530000     -72.23960000
H      -42.68930000     -35.76350000     -71.55900000
C      -46.24590000     -31.20840000     -71.41600000
H      -46.18560000     -32.29000000     -71.79010000
H      -47.15590000     -31.09730000     -70.86360000
C      -45.11420000     -30.99520000     -70.44930000
H      -44.21550000     -31.46750000     -70.97270000
H      -45.07690000     -29.92690000     -70.14430000
C      -43.98050000     -34.03540000     -71.32630000
H      -44.75380000     -33.58200000     -71.96130000
H      -43.27010000     -33.15270000     -71.24030000
C      -44.55540000     -34.22690000     -69.98130000
C      -44.62680000     -35.48940000     -69.43230000
C      -45.02620000     -33.22680000     -69.09310000
H      -44.46440000     -36.40530000     -70.04600000
C      -45.31060000     -33.77460000     -67.76840000
C      -45.36260000     -31.81500000     -69.16300000
C      -45.94280000     -31.36690000     -67.97410000
S      -45.11340000     -35.46980000     -67.71680000
S      -46.23050000     -32.60470000     -66.78850000
H      -46.22220000     -30.36670000     -67.82150000
