40
Properties=species:S:1:pos:R:3 #=T CELL(abcABC):=T 1.889726e+02=T 90.00000=T Traj:=T positionsangstrom=T Step:=T 0=T Bead:=T pbc="F F F"
C      -47.63710000     -33.84710000     -73.54860000
C      -46.85570000     -32.89110000     -74.22370000
C      -45.61950000     -33.25520000     -74.75650000
C      -45.16730000     -34.55300000     -74.51510000
C      -45.94670000     -35.48590000     -73.80460000
C      -47.22680000     -35.15210000     -73.38280000
H      -48.66560000     -33.60180000     -73.25360000
H      -45.06610000     -32.52160000     -75.35390000
H      -45.45250000     -36.40860000     -73.66400000
H      -47.89400000     -35.86750000     -72.89390000
C      -43.83900000     -34.96180000     -74.98330000
H      -43.53580000     -34.33830000     -75.84750000
H      -43.88940000     -35.99100000     -75.26910000
C      -47.23250000     -31.34550000     -74.29180000
H      -46.82960000     -30.86360000     -75.22100000
H      -48.22920000     -31.02060000     -74.07230000
S      -42.48110000     -34.66210000     -73.64680000
S      -46.07970000     -30.57070000     -73.07690000
C      -43.28840000     -35.06800000     -72.01910000
H      -44.11190000     -35.76780000     -72.24140000
H      -42.49120000     -35.64070000     -71.44560000
C      -46.49190000     -31.13300000     -71.38190000
H      -46.73020000     -32.20730000     -71.42330000
H      -47.38660000     -30.65620000     -70.94710000
C      -45.25990000     -30.88290000     -70.55470000
H      -44.23200000     -31.16290000     -70.95350000
H      -45.29360000     -29.77480000     -70.42260000
C      -43.78380000     -33.86370000     -71.28480000
H      -44.60440000     -33.41860000     -71.86860000
H      -43.14160000     -32.96970000     -71.29370000
C      -44.31860000     -34.15010000     -69.88120000
C      -44.18630000     -35.33970000     -69.19650000
C      -45.14340000     -33.23660000     -69.18200000
H      -43.75800000     -36.31850000     -69.52480000
C      -45.47200000     -33.73220000     -67.91190000
C      -45.42810000     -31.72260000     -69.23150000
C      -46.01170000     -31.29410000     -68.05540000
S      -45.14120000     -35.36930000     -67.69350000
S      -46.19830000     -32.59980000     -66.83910000
H      -46.20090000     -30.22430000     -67.87330000
