40
Properties=species:S:1:pos:R:3 #=T CELL(abcABC):=T 1.889726e+02=T 90.00000=T Traj:=T positionsangstrom=T Step:=T 0=T Bead:=T pbc="F F F"
C      -44.44970000     -35.64720000     -68.19490000
C      -45.30870000     -34.82510000     -68.93670000
C      -45.34420000     -34.97920000     -70.35550000
C      -44.44790000     -35.80200000     -71.09700000
C      -43.48790000     -36.47910000     -70.30000000
C      -43.47450000     -36.37150000     -68.88860000
H      -44.41600000     -35.69610000     -67.06360000
H      -46.09910000     -34.40430000     -70.90340000
H      -42.75300000     -37.08840000     -70.81130000
H      -42.85400000     -37.11060000     -68.40960000
C      -44.36060000     -35.86290000     -72.61420000
H      -45.24980000     -35.46940000     -73.02680000
H      -44.26630000     -36.93790000     -72.89700000
C      -46.27780000     -33.78920000     -68.40040000
H      -46.92890000     -33.57250000     -69.24440000
H      -46.75200000     -34.12130000     -67.46460000
S      -42.88120000     -35.04680000     -73.27580000
S      -45.35300000     -32.27010000     -67.94720000
C      -42.76090000     -33.41300000     -72.47290000
H      -43.14500000     -33.46540000     -71.50750000
H      -41.69150000     -33.27760000     -72.28230000
C      -44.22010000     -32.00250000     -69.40530000
H      -43.96920000     -32.90500000     -70.01140000
H      -43.28230000     -31.72060000     -68.96310000
C      -44.77140000     -30.81380000     -70.33190000
H      -45.10600000     -29.96730000     -69.71620000
H      -43.93270000     -30.35000000     -70.95960000
C      -43.47650000     -32.32850000     -73.27460000
H      -43.09490000     -32.32180000     -74.32630000
H      -43.24390000     -31.31870000     -72.93150000
C      -44.98070000     -32.58140000     -73.27780000
C      -45.62600000     -33.15030000     -74.32850000
C      -45.94820000     -32.00240000     -72.36370000
H      -45.07900000     -33.58040000     -75.11670000
C      -47.24240000     -32.23150000     -72.79310000
C      -45.92760000     -31.12670000     -71.20720000
C      -47.16950000     -30.88960000     -70.68980000
S      -47.41950000     -33.21440000     -74.26740000
S      -48.43110000     -31.63060000     -71.61880000
H      -47.32940000     -30.15710000     -69.89910000
