40
Properties=species:S:1:pos:R:3 #=T CELL(abcABC):=T 1.889726e+02=T 90.00000=T Traj:=T positionsangstrom=T Step:=T 0=T Bead:=T pbc="F F F"
C      -44.15260000     -35.41990000     -68.37180000
C      -45.06520000     -34.67310000     -69.17170000
C      -45.01910000     -34.98160000     -70.56290000
C      -44.14450000     -35.90360000     -71.15720000
C      -43.22480000     -36.55310000     -70.32580000
C      -43.22480000     -36.26090000     -68.98940000
H      -44.05320000     -35.26530000     -67.31630000
H      -45.73930000     -34.48660000     -71.24180000
H      -42.51010000     -37.27060000     -70.78330000
H      -42.53630000     -36.56150000     -68.26250000
C      -44.17850000     -36.24750000     -72.57290000
H      -45.11190000     -36.09180000     -72.96770000
H      -43.81980000     -37.24690000     -72.90220000
C      -46.07400000     -33.68630000     -68.73940000
H      -46.84700000     -33.41650000     -69.40710000
H      -46.76090000     -33.98970000     -67.91010000
S      -42.98250000     -35.22850000     -73.52970000
S      -45.38680000     -32.12300000     -68.08550000
C      -42.67700000     -33.51560000     -72.76150000
H      -42.80230000     -33.47950000     -71.64050000
H      -41.69860000     -33.14690000     -73.06260000
C      -44.11350000     -31.56960000     -69.37540000
H      -43.75440000     -32.51300000     -69.82830000
H      -43.33690000     -31.01240000     -68.81770000
C      -44.71790000     -30.54040000     -70.44030000
H      -45.07020000     -29.69930000     -69.86750000
H      -44.02030000     -30.18880000     -71.25170000
C      -43.71450000     -32.36680000     -73.31500000
H      -43.28230000     -32.25660000     -74.32840000
H      -43.46180000     -31.46860000     -72.77850000
C      -45.20220000     -32.63370000     -73.25320000
C      -45.94470000     -33.35570000     -74.14380000
C      -46.08640000     -32.05800000     -72.23190000
H      -45.53790000     -34.06220000     -74.89590000
C      -47.43570000     -32.30330000     -72.51640000
C      -45.95460000     -31.12830000     -71.05430000
C      -47.17680000     -30.75520000     -70.54820000
S      -47.65230000     -33.38520000     -73.89310000
S      -48.54510000     -31.58990000     -71.33360000
H      -47.43180000     -30.16330000     -69.63220000
