40
Properties=species:S:1:pos:R:3 #=T CELL(abcABC):=T 1.889726e+02=T 90.00000=T Traj:=T positionsangstrom=T Step:=T 0=T Bead:=T pbc="F F F"
C      -44.29600000     -35.24710000     -68.46640000
C      -45.27290000     -34.66460000     -69.29330000
C      -45.25870000     -35.00210000     -70.62650000
C      -44.34500000     -36.00170000     -71.16110000
C      -43.35870000     -36.50300000     -70.29330000
C      -43.39630000     -36.17780000     -68.93060000
H      -44.21750000     -35.05660000     -67.40900000
H      -45.97750000     -34.60510000     -71.34870000
H      -42.55900000     -37.18190000     -70.52830000
H      -42.65160000     -36.68480000     -68.29650000
C      -44.39310000     -36.23050000     -72.64350000
H      -45.38750000     -35.88710000     -73.04640000
H      -44.25200000     -37.21660000     -72.98950000
C      -46.30010000     -33.65590000     -68.69910000
H      -46.90210000     -33.22400000     -69.53840000
H      -46.90170000     -34.23600000     -67.99680000
S      -42.93960000     -35.18690000     -73.44030000
S      -45.43050000     -32.17050000     -67.95480000
C      -42.81720000     -33.58570000     -72.61900000
H      -43.16050000     -33.62530000     -71.56820000
H      -41.73110000     -33.34230000     -72.57850000
C      -44.22210000     -31.78480000     -69.28980000
H      -43.93300000     -32.72670000     -69.75780000
H      -43.26010000     -31.45480000     -68.84430000
C      -44.59060000     -30.79360000     -70.29060000
H      -44.79750000     -29.79240000     -69.80190000
H      -43.71490000     -30.62880000     -70.90710000
C      -43.59600000     -32.36030000     -73.23830000
H      -43.17590000     -32.20830000     -74.22800000
H      -43.32470000     -31.51740000     -72.55210000
C      -45.03740000     -32.58320000     -73.22700000
C      -45.75560000     -33.29730000     -74.15760000
C      -45.94970000     -31.95250000     -72.28430000
H      -45.27620000     -33.67780000     -75.11800000
C      -47.30190000     -32.26170000     -72.63610000
C      -45.80160000     -31.18770000     -71.08370000
C      -47.06300000     -30.89360000     -70.58080000
S      -47.54180000     -33.25620000     -74.02800000
S      -48.38970000     -31.59310000     -71.44460000
H      -47.24830000     -30.31220000     -69.69240000
