40
Properties=species:S:1:pos:R:3 #=T CELL(abcABC):=T 1.889726e+02=T 90.00000=T Traj:=T positionsangstrom=T Step:=T 0=T Bead:=T pbc="F F F"
C      -44.33520000     -35.65340000     -68.20900000
C      -45.18600000     -34.83940000     -68.94190000
C      -45.24890000     -34.88110000     -70.33710000
C      -44.45160000     -35.83350000     -71.04240000
C      -43.61210000     -36.65240000     -70.28250000
C      -43.57680000     -36.58700000     -68.85780000
H      -44.24440000     -35.51450000     -67.12770000
H      -45.84600000     -34.23440000     -70.91390000
H      -42.98680000     -37.31610000     -70.80950000
H      -42.90200000     -37.22940000     -68.25850000
C      -44.44250000     -35.84590000     -72.54620000
H      -45.31830000     -35.36220000     -72.95210000
H      -44.43170000     -36.81750000     -73.08590000
C      -46.11770000     -33.92290000     -68.17980000
H      -47.15620000     -33.87760000     -68.75350000
H      -46.27720000     -34.31010000     -67.19350000
S      -42.76330000     -35.00780000     -73.22550000
S      -45.40790000     -32.22640000     -67.90460000
C      -42.65070000     -33.31070000     -72.58000000
H      -43.01730000     -33.47050000     -71.52100000
H      -41.57440000     -33.04180000     -72.56260000
C      -44.29960000     -31.92500000     -69.31000000
H      -43.93190000     -32.86420000     -69.84240000
H      -43.40250000     -31.53800000     -68.79730000
C      -44.83990000     -30.88460000     -70.31960000
H      -44.94290000     -29.91770000     -69.73380000
H      -43.99350000     -30.71380000     -70.94430000
C      -43.45350000     -32.19670000     -73.31520000
H      -43.06980000     -32.15220000     -74.33710000
H      -43.17080000     -31.25030000     -72.80700000
C      -45.01280000     -32.39210000     -73.33470000
C      -45.57400000     -33.07370000     -74.38720000
C      -46.03510000     -31.87850000     -72.44810000
H      -45.04290000     -33.40290000     -75.21170000
C      -47.29230000     -32.27690000     -72.82850000
C      -46.02700000     -31.31340000     -71.08760000
C      -47.29750000     -31.09900000     -70.67280000
S      -47.35300000     -33.20290000     -74.27410000
S      -48.50430000     -31.61610000     -71.83090000
H      -47.54610000     -30.68810000     -69.67170000
