40
Properties=species:S:1:pos:R:3 #=T CELL(abcABC):=T 1.889726e+02=T 90.00000=T Traj:=T positionsangstrom=T Step:=T 0=T Bead:=T pbc="F F F"
C      -44.45920000     -35.82630000     -68.19500000
C      -45.19930000     -34.83610000     -68.89370000
C      -45.12550000     -34.82860000     -70.30950000
C      -44.37420000     -35.78110000     -71.01610000
C      -43.53410000     -36.63430000     -70.27940000
C      -43.68480000     -36.75180000     -68.88650000
H      -44.49210000     -36.02600000     -67.14480000
H      -45.71370000     -34.13540000     -70.86540000
H      -42.87160000     -37.30040000     -70.87780000
H      -42.94860000     -37.33700000     -68.35660000
C      -44.39060000     -35.68080000     -72.50290000
H      -45.22170000     -34.96760000     -72.82450000
H      -44.50720000     -36.55430000     -73.06530000
C      -46.09050000     -33.91680000     -68.22220000
H      -47.08800000     -33.82720000     -68.61300000
H      -46.33150000     -34.30230000     -67.25290000
S      -42.77510000     -34.98320000     -73.22400000
S      -45.44180000     -32.20090000     -67.86940000
C      -42.79550000     -33.24800000     -72.22570000
H      -43.23250000     -33.40180000     -71.24990000
H      -41.83340000     -32.90190000     -72.12780000
C      -44.38250000     -31.73050000     -69.25480000
H      -44.16350000     -32.66240000     -69.70620000
H      -43.53910000     -31.18540000     -68.79740000
C      -44.87730000     -30.71700000     -70.33940000
H      -44.99690000     -29.68530000     -70.08380000
H      -44.11000000     -30.68750000     -71.12620000
C      -43.46030000     -32.19310000     -73.14170000
H      -42.93090000     -32.35600000     -74.08050000
H      -43.20970000     -31.18420000     -72.84200000
C      -44.94830000     -32.34180000     -73.39670000
C      -45.49770000     -33.03450000     -74.49530000
C      -45.96370000     -32.04330000     -72.41080000
H      -44.95670000     -33.67630000     -75.17060000
C      -47.25640000     -32.54670000     -72.79130000
C      -46.06080000     -31.29110000     -71.14620000
C      -47.37710000     -31.03760000     -70.80580000
S      -47.26860000     -33.10580000     -74.46850000
S      -48.50400000     -31.83040000     -71.82860000
H      -47.65600000     -30.88610000     -69.77870000
