40
Properties=species:S:1:pos:R:3 #=T CELL(abcABC):=T 1.889726e+02=T 90.00000=T Traj:=T positionsangstrom=T Step:=T 0=T Bead:=T pbc="F F F"
C      -45.97280000     -29.96610000     -70.39660000
C      -46.26740000     -30.94670000     -69.43570000
C      -45.31220000     -31.77870000     -68.96980000
C      -43.97660000     -31.74140000     -69.45040000
C      -43.71460000     -30.76510000     -70.41380000
C      -44.71530000     -29.99310000     -70.96030000
H      -46.70630000     -29.32300000     -70.83970000
H      -45.64480000     -32.51920000     -68.26840000
H      -42.68280000     -30.73940000     -70.71880000
H      -44.51030000     -29.46460000     -71.89500000
C      -42.90220000     -32.47940000     -68.78040000
H      -43.27410000     -33.16390000     -67.93180000
H      -42.21320000     -31.63990000     -68.41970000
C      -47.77020000     -30.99730000     -68.94880000
H      -47.91460000     -30.71000000     -67.85310000
H      -48.32090000     -30.26720000     -69.51150000
S      -41.94180000     -33.52200000     -70.01890000
S      -48.81720000     -32.57810000     -69.13100000
C      -42.76280000     -35.27940000     -69.80560000
H      -42.16230000     -36.16910000     -70.06750000
H      -42.88940000     -35.37800000     -68.71360000
C      -48.52880000     -33.18820000     -70.84700000
H      -48.30760000     -32.39930000     -71.51110000
H      -49.49530000     -33.66460000     -71.15380000
C      -47.29550000     -34.02700000     -70.96360000
H      -46.51680000     -33.72010000     -70.22770000
H      -47.49680000     -35.06330000     -70.61810000
C      -44.23150000     -35.23310000     -70.37530000
H      -44.75880000     -34.33440000     -70.08990000
H      -44.74180000     -36.09550000     -69.94350000
C      -44.36680000     -35.25580000     -71.86850000
C      -43.42500000     -35.93590000     -72.60210000
C      -45.43900000     -34.74060000     -72.64570000
H      -42.76460000     -36.68340000     -72.15360000
C      -45.20780000     -34.84670000     -74.05220000
C      -46.69760000     -34.04720000     -72.37780000
C      -47.33570000     -33.64310000     -73.52860000
S      -43.68830000     -35.73580000     -74.33170000
S      -46.53690000     -34.14130000     -74.94360000
H      -48.22100000     -33.13180000     -73.65790000
