40
Properties=species:S:1:pos:R:3 #=T CELL(abcABC):=T 1.889726e+02=T 90.00000=T Traj:=T positionsangstrom=T Step:=T 0=T Bead:=T pbc="F F F"
C      -44.58270000     -35.74580000     -68.15910000
C      -45.26070000     -34.77020000     -68.94690000
C      -45.23980000     -34.89780000     -70.34750000
C      -44.41760000     -35.80840000     -71.00910000
C      -43.78690000     -36.76950000     -70.21380000
C      -43.82900000     -36.69960000     -68.82920000
H      -44.61180000     -35.78160000     -67.09070000
H      -45.80150000     -34.13590000     -70.92080000
H      -43.11560000     -37.54010000     -70.69380000
H      -43.41500000     -37.51380000     -68.27590000
C      -44.30790000     -35.84140000     -72.55260000
H      -45.19340000     -35.30880000     -72.95310000
H      -44.19060000     -36.83930000     -72.93110000
C      -46.17390000     -33.73210000     -68.25150000
H      -46.99540000     -33.55050000     -68.89210000
H      -46.30680000     -34.30890000     -67.21220000
S      -42.81180000     -34.92890000     -73.17600000
S      -45.48200000     -32.11680000     -67.93480000
C      -42.69060000     -33.24920000     -72.31420000
H      -43.04830000     -33.34780000     -71.27810000
H      -41.61970000     -33.02560000     -72.15090000
C      -44.31820000     -31.66500000     -69.36630000
H      -44.02040000     -32.64070000     -69.83390000
H      -43.28920000     -31.39560000     -68.99640000
C      -45.05400000     -30.64490000     -70.28120000
H      -45.44100000     -29.94260000     -69.55060000
H      -44.29530000     -30.18420000     -70.97750000
C      -43.34470000     -32.11080000     -73.08310000
H      -42.81660000     -31.97720000     -74.07650000
H      -43.06880000     -31.22970000     -72.48150000
C      -44.83840000     -32.21160000     -73.35060000
C      -45.28830000     -32.89730000     -74.48610000
C      -45.99290000     -31.87770000     -72.42860000
H      -44.64160000     -33.45180000     -75.20960000
C      -47.19180000     -32.39810000     -72.91900000
C      -46.12170000     -31.36620000     -71.04760000
C      -47.43000000     -31.29670000     -70.56910000
S      -47.02400000     -33.17620000     -74.52360000
S      -48.53100000     -32.07530000     -71.83670000
H      -47.74110000     -30.72380000     -69.74920000
