40
Properties=species:S:1:pos:R:3 #=T CELL(abcABC):=T 1.889726e+02=T 90.00000=T Traj:=T positionsangstrom=T Step:=T 0=T Bead:=T pbc="F F F"
C      -44.76000000     -35.65020000     -68.39630000
C      -45.51140000     -35.05770000     -69.45060000
C      -45.10410000     -35.25210000     -70.77770000
C      -43.92590000     -35.98760000     -71.05760000
C      -43.03920000     -36.35830000     -69.95650000
C      -43.50040000     -36.24820000     -68.67340000
H      -45.06520000     -35.40500000     -67.40730000
H      -45.57980000     -34.78750000     -71.62500000
H      -42.18340000     -36.91600000     -70.27940000
H      -42.92110000     -36.57030000     -67.82350000
C      -43.50720000     -35.99090000     -72.46830000
H      -44.32670000     -35.84220000     -73.13160000
H      -43.16920000     -37.12220000     -72.62100000
C      -46.79030000     -34.29680000     -69.15140000
H      -47.26680000     -33.89880000     -70.03650000
H      -47.38360000     -34.88440000     -68.54250000
S      -42.24120000     -34.69820000     -72.84970000
S      -46.39250000     -32.78420000     -68.17550000
C      -42.66690000     -33.24320000     -71.68180000
H      -43.18000000     -33.68250000     -70.87070000
H      -41.72880000     -32.95350000     -71.30290000
C      -45.02470000     -31.88870000     -69.05080000
H      -44.43910000     -32.57420000     -69.67340000
H      -44.22720000     -31.64440000     -68.26270000
C      -45.53300000     -30.71890000     -69.88120000
H      -45.97920000     -30.07560000     -69.22840000
H      -44.68970000     -30.18960000     -70.29170000
C      -43.36770000     -31.99800000     -72.31930000
H      -42.73490000     -31.69650000     -73.13660000
H      -43.43330000     -31.16560000     -71.53840000
C      -44.76170000     -32.14300000     -72.89330000
C      -44.83720000     -32.66180000     -74.15790000
C      -46.03940000     -31.85230000     -72.20110000
H      -44.02330000     -32.80750000     -74.82380000
C      -47.11720000     -32.23420000     -73.03380000
C      -46.44120000     -31.16270000     -71.01840000
C      -47.78310000     -31.21010000     -70.96180000
S      -46.58630000     -32.94640000     -74.51150000
S      -48.65450000     -31.88080000     -72.39300000
H      -48.34930000     -30.61510000     -70.29470000
