40
Properties=species:S:1:pos:R:3 #=T CELL(abcABC):=T 1.889726e+02=T 90.00000=T Traj:=T positionsangstrom=T Step:=T 0=T Bead:=T pbc="F F F"
C      -47.78560000     -33.01550000     -74.84800000
C      -47.58120000     -32.04960000     -73.85210000
C      -47.99540000     -32.31000000     -72.47420000
C      -48.60910000     -33.52430000     -72.20900000
C      -48.71450000     -34.48830000     -73.22090000
C      -48.30130000     -34.27420000     -74.51420000
H      -47.50990000     -32.69350000     -75.86810000
H      -47.93270000     -31.44370000     -71.85340000
H      -49.34560000     -35.40580000     -73.05370000
H      -48.59290000     -35.00220000     -75.26860000
C      -49.22940000     -33.83590000     -70.82190000
H      -50.29360000     -34.10210000     -70.89850000
H      -49.31700000     -32.95550000     -70.11070000
C      -47.01150000     -30.71990000     -74.20860000
H      -47.25820000     -30.31440000     -75.17880000
H      -47.30130000     -29.96130000     -73.47970000
S      -48.24140000     -35.14910000     -69.97300000
S      -45.09240000     -30.81080000     -74.26290000
C      -46.58590000     -34.30430000     -70.11220000
H      -46.74170000     -33.25480000     -70.56400000
H      -46.15340000     -34.15520000     -69.07210000
C      -44.48060000     -31.98690000     -72.88830000
H      -43.50180000     -32.43350000     -73.10850000
H      -45.06250000     -32.95660000     -72.99090000
C      -44.53140000     -31.61060000     -71.37230000
H      -44.32770000     -30.60200000     -71.19970000
H      -45.55500000     -31.75620000     -70.94170000
C      -45.56620000     -35.13350000     -70.84540000
H      -45.45340000     -34.85180000     -71.88190000
H      -45.81610000     -36.14470000     -70.80520000
C      -44.22740000     -34.92570000     -70.12620000
C      -43.69770000     -36.00630000     -69.47160000
C      -43.42130000     -33.71950000     -70.09120000
H      -44.25760000     -36.96040000     -69.24870000
C      -42.24850000     -33.98750000     -69.33320000
C      -43.44200000     -32.31890000     -70.52530000
C      -42.34270000     -31.60520000     -70.09350000
S      -42.16650000     -35.60530000     -68.66720000
S      -41.23040000     -32.52170000     -69.03850000
H      -42.14680000     -30.61170000     -70.50620000
