40
Properties=species:S:1:pos:R:3 #=T CELL(abcABC):=T 1.889726e+02=T 90.00000=T Traj:=T positionsangstrom=T Step:=T 0=T Bead:=T pbc="F F F"
C      -44.73160000     -35.66020000     -68.25390000
C      -45.38730000     -34.73430000     -69.06220000
C      -45.20340000     -34.80790000     -70.43640000
C      -44.37870000     -35.75520000     -71.06250000
C      -43.77350000     -36.74770000     -70.24780000
C      -43.94030000     -36.65310000     -68.86020000
H      -44.83550000     -35.69680000     -67.18810000
H      -45.84270000     -34.12610000     -71.04570000
H      -43.15030000     -37.52700000     -70.60940000
H      -43.54830000     -37.38380000     -68.14790000
C      -44.23130000     -35.76010000     -72.52990000
H      -45.13380000     -35.50240000     -73.02440000
H      -44.03670000     -36.87270000     -72.84950000
C      -46.31500000     -33.70360000     -68.52480000
H      -46.97790000     -33.26620000     -69.26880000
H      -47.07160000     -34.02930000     -67.70760000
S      -42.83050000     -34.79460000     -73.12020000
S      -45.39110000     -32.22670000     -67.77550000
C      -42.74860000     -33.34160000     -72.19510000
H      -43.33770000     -33.39320000     -71.28320000
H      -41.63430000     -33.22130000     -71.93100000
C      -44.37470000     -31.66180000     -69.23000000
H      -44.16330000     -32.54470000     -69.80600000
H      -43.51780000     -31.18520000     -68.82690000
C      -45.06300000     -30.70970000     -70.18710000
H      -45.59610000     -29.84360000     -69.69480000
H      -44.41320000     -30.24430000     -70.88410000
C      -43.33160000     -32.08430000     -72.93570000
H      -42.76690000     -31.85050000     -73.86540000
H      -43.20440000     -31.17560000     -72.30830000
C      -44.78580000     -32.23210000     -73.27760000
C      -45.19990000     -32.87980000     -74.45500000
C      -45.92620000     -31.97060000     -72.36070000
H      -44.56180000     -33.09270000     -75.33180000
C      -47.10010000     -32.35960000     -72.98610000
C      -46.16120000     -31.31320000     -71.09330000
C      -47.53370000     -31.38010000     -70.75980000
S      -46.94940000     -33.21700000     -74.54630000
S      -48.49060000     -32.17800000     -71.90230000
H      -48.00170000     -30.86460000     -69.92780000
