40
Properties=species:S:1:pos:R:3 #=T CELL(abcABC):=T 1.889726e+02=T 90.00000=T Traj:=T positionsangstrom=T Step:=T 0=T Bead:=T pbc="F F F"
C      -44.73230000     -35.63720000     -68.31060000
C      -45.55580000     -34.90260000     -69.11530000
C      -45.28250000     -34.90090000     -70.51330000
C      -44.26370000     -35.66710000     -71.08400000
C      -43.55170000     -36.46950000     -70.27710000
C      -43.74680000     -36.45500000     -68.88200000
H      -44.95890000     -35.57710000     -67.24160000
H      -45.86940000     -34.27920000     -71.16940000
H      -42.64610000     -37.02760000     -70.65450000
H      -43.04300000     -37.11300000     -68.32360000
C      -44.14090000     -35.66890000     -72.56880000
H      -45.04850000     -35.01800000     -72.94040000
H      -44.17700000     -36.62270000     -72.96890000
C      -46.50650000     -33.89340000     -68.52490000
H      -47.19250000     -33.54840000     -69.40160000
H      -47.12450000     -34.30170000     -67.69350000
S      -42.53320000     -34.84190000     -73.11170000
S      -45.68280000     -32.38300000     -67.79840000
C      -42.61450000     -33.23890000     -72.07370000
H      -42.98540000     -33.38870000     -71.00940000
H      -41.56200000     -32.97970000     -71.86840000
C      -44.55260000     -31.83390000     -69.16510000
H      -44.42420000     -32.74590000     -69.73220000
H      -43.59300000     -31.55710000     -68.82610000
C      -45.25070000     -30.78760000     -70.02200000
H      -45.85930000     -30.05290000     -69.46020000
H      -44.56930000     -30.23240000     -70.63480000
C      -43.30770000     -32.07130000     -72.68220000
H      -42.75690000     -31.74210000     -73.60160000
H      -43.16830000     -31.20030000     -71.98840000
C      -44.75420000     -32.41240000     -73.05070000
C      -45.07950000     -32.96270000     -74.26360000
C      -45.94630000     -32.04500000     -72.29670000
H      -44.27800000     -33.32050000     -74.92900000
C      -47.09880000     -32.32810000     -73.01620000
C      -46.30060000     -31.42030000     -70.97790000
C      -47.68640000     -31.39430000     -70.83170000
S      -46.79160000     -33.08280000     -74.60990000
S      -48.59480000     -31.99010000     -72.16330000
H      -48.20850000     -30.90130000     -70.03430000
