40
Properties=species:S:1:pos:R:3 #=T CELL(abcABC):=T 1.889726e+02=T 90.00000=T Traj:=T positionsangstrom=T Step:=T 0=T Bead:=T pbc="F F F"
C      -49.07030000     -32.39290000     -70.69550000
C      -48.30350000     -32.60930000     -69.52400000
C      -47.28950000     -31.69980000     -69.22220000
C      -47.10070000     -30.57110000     -69.94970000
C      -47.91000000     -30.34160000     -71.08540000
C      -48.88270000     -31.23110000     -71.43340000
H      -49.87720000     -33.09350000     -71.00820000
H      -46.64050000     -31.87400000     -68.33420000
H      -47.69050000     -29.41780000     -71.66360000
H      -49.54360000     -31.02680000     -72.32370000
C      -45.92410000     -29.64620000     -69.61390000
H      -45.66570000     -29.85610000     -68.51850000
H      -46.17290000     -28.59100000     -69.57940000
C      -48.34330000     -33.91200000     -68.69480000
H      -47.52700000     -33.87470000     -67.92230000
H      -49.23280000     -34.03220000     -68.08470000
S      -44.58600000     -29.79960000     -70.81520000
S      -48.12830000     -35.33000000     -69.82800000
C      -44.56330000     -31.48620000     -71.45330000
H      -45.57280000     -31.80320000     -71.70300000
H      -43.87010000     -31.45690000     -72.31690000
C      -46.30550000     -35.22970000     -70.34150000
H      -45.91330000     -36.18990000     -70.38480000
H      -45.71010000     -34.69650000     -69.53560000
C      -46.20430000     -34.57630000     -71.72480000
H      -47.06220000     -34.89040000     -72.30100000
H      -46.29260000     -33.44400000     -71.62750000
C      -43.81010000     -32.57140000     -70.63010000
H      -44.58900000     -33.01260000     -69.99080000
H      -43.05000000     -32.14210000     -69.91420000
C      -43.04910000     -33.51820000     -71.49790000
C      -41.64960000     -33.46280000     -71.68720000
C      -43.63550000     -34.55150000     -72.32070000
H      -40.88270000     -32.72060000     -71.21780000
C      -42.70400000     -35.31920000     -73.04840000
C      -44.96220000     -35.07290000     -72.44520000
C      -45.05200000     -36.08110000     -73.36330000
S      -41.11780000     -34.69630000     -72.71760000
S      -43.44450000     -36.55300000     -73.99290000
H      -45.96670000     -36.61670000     -73.71700000
