40
Properties=species:S:1:pos:R:3 #=T CELL(abcABC):=T 1.889726e+02=T 90.00000=T Traj:=T positionsangstrom=T Step:=T 0=T Bead:=T pbc="F F F"
C      -44.89550000     -36.04010000     -68.69740000
C      -45.53210000     -35.22590000     -69.66520000
C      -44.89490000     -35.03510000     -70.88430000
C      -43.65240000     -35.60980000     -71.20060000
C      -43.08670000     -36.47970000     -70.25370000
C      -43.71620000     -36.72650000     -69.04390000
H      -45.32070000     -36.28670000     -67.69130000
H      -45.35320000     -34.38490000     -71.56810000
H      -42.09910000     -36.86470000     -70.45730000
H      -43.16700000     -37.30230000     -68.35850000
C      -42.87630000     -35.28790000     -72.46710000
H      -43.42380000     -35.33080000     -73.44200000
H      -42.17730000     -36.11400000     -72.57050000
C      -46.80210000     -34.55510000     -69.47320000
H      -47.14550000     -34.01560000     -70.39280000
H      -47.56330000     -35.24080000     -69.07060000
S      -41.93670000     -33.73410000     -72.36000000
S      -46.68190000     -33.30030000     -68.08160000
C      -42.80440000     -32.68370000     -71.15290000
H      -43.52960000     -33.26620000     -70.73870000
H      -42.18380000     -32.37410000     -70.33260000
C      -45.56540000     -32.02430000     -68.88640000
H      -44.80170000     -32.51990000     -69.42840000
H      -44.90150000     -31.59000000     -68.08220000
C      -46.25470000     -30.97810000     -69.75880000
H      -47.04800000     -30.44880000     -69.11400000
H      -45.47040000     -30.17730000     -70.02420000
C      -43.48310000     -31.45320000     -71.72220000
H      -42.83080000     -30.65850000     -72.21400000
H      -43.83710000     -30.98640000     -70.82190000
C      -44.64540000     -31.86360000     -72.58930000
C      -44.52450000     -32.32470000     -73.90000000
C      -46.07210000     -31.87860000     -72.20620000
H      -43.54250000     -32.60940000     -74.36620000
C      -46.93250000     -32.47240000     -73.16360000
C      -46.85990000     -31.46180000     -71.06780000
C      -48.20410000     -31.63840000     -71.23330000
S      -46.09510000     -32.96760000     -74.63540000
S      -48.66580000     -32.42690000     -72.81750000
H      -49.02540000     -31.43540000     -70.53730000
