40
Properties=species:S:1:pos:R:3 #=T CELL(abcABC):=T 1.889726e+02=T 90.00000=T Traj:=T positionsangstrom=T Step:=T 0=T Bead:=T pbc="F F F"
C      -43.27570000     -34.26260000     -74.45860000
C      -43.12950000     -35.18240000     -73.40500000
C      -44.27690000     -35.91050000     -72.96160000
C      -45.52380000     -35.83220000     -73.59290000
C      -45.61020000     -34.95800000     -74.67220000
C      -44.46630000     -34.15510000     -75.09040000
H      -42.41490000     -33.73310000     -74.88880000
H      -44.19050000     -36.39930000     -71.99110000
H      -46.67150000     -34.89280000     -74.94150000
H      -44.67180000     -33.45760000     -75.95820000
C      -46.67140000     -36.75390000     -73.12750000
H      -46.33440000     -37.72280000     -73.44260000
H      -47.53710000     -36.55570000     -73.71880000
C      -41.84840000     -35.20180000     -72.64070000
H      -41.81400000     -36.10990000     -71.98770000
H      -40.97090000     -35.31690000     -73.23190000
S      -47.02240000     -36.70850000     -71.40310000
S      -41.50410000     -33.80340000     -71.62060000
C      -47.32650000     -34.85890000     -71.03790000
H      -46.95320000     -34.36170000     -71.91550000
H      -48.36170000     -34.60820000     -70.96830000
C      -43.15440000     -33.34550000     -70.77380000
H      -42.78800000     -32.58950000     -70.04020000
H      -43.45140000     -34.28930000     -70.24150000
C      -44.21600000     -32.66020000     -71.65760000
H      -43.79830000     -32.16610000     -72.53040000
H      -44.91400000     -33.45970000     -72.03210000
C      -46.61140000     -34.38470000     -69.81370000
H      -45.53920000     -34.61100000     -69.79830000
H      -46.91820000     -35.06020000     -68.95710000
C      -46.96930000     -32.93100000     -69.45620000
C      -47.98850000     -32.56340000     -68.67760000
C      -46.13330000     -31.78500000     -69.93520000
H      -48.91510000     -33.10170000     -68.52800000
C      -46.53190000     -30.61610000     -69.33630000
C      -45.03180000     -31.64460000     -70.86450000
C      -44.79430000     -30.29930000     -71.07260000
S      -47.90760000     -30.81620000     -68.25650000
S      -45.69210000     -29.22120000     -70.04200000
H      -44.19430000     -29.99640000     -71.90340000
