40
Properties=species:S:1:pos:R:3 #=T CELL(abcABC):=T 1.889726e+02=T 90.00000=T Traj:=T positionsangstrom=T Step:=T 0=T Bead:=T pbc="F F F"
C      -44.68990000     -35.91070000     -68.64230000
C      -45.40950000     -35.21690000     -69.61830000
C      -44.90800000     -35.10630000     -70.94220000
C      -43.65260000     -35.56170000     -71.24670000
C      -42.96190000     -36.33040000     -70.30570000
C      -43.47510000     -36.47840000     -69.02340000
H      -45.14770000     -35.97520000     -67.68040000
H      -45.45610000     -34.57700000     -71.67460000
H      -42.11100000     -36.87990000     -70.52690000
H      -42.95240000     -37.17430000     -68.33170000
C      -42.99190000     -35.32400000     -72.60610000
H      -43.78880000     -35.02790000     -73.30120000
H      -42.29740000     -36.13790000     -72.90200000
C      -46.75630000     -34.53520000     -69.33950000
H      -47.11380000     -34.20150000     -70.35550000
H      -47.47610000     -35.42810000     -69.02260000
S      -41.86860000     -33.89140000     -72.41340000
S      -46.82440000     -33.24110000     -68.11490000
C      -42.59010000     -32.60770000     -71.25460000
H      -43.12750000     -33.10020000     -70.42710000
H      -41.62310000     -32.12070000     -70.84630000
C      -45.60460000     -31.92900000     -68.71380000
H      -44.79550000     -32.46500000     -69.23570000
H      -45.34490000     -31.51350000     -67.73580000
C      -46.16790000     -30.95110000     -69.70040000
H      -46.97330000     -30.37490000     -69.27140000
H      -45.30060000     -30.44400000     -70.02560000
C      -43.45830000     -31.54270000     -71.92380000
H      -42.84140000     -30.87950000     -72.57500000
H      -43.90060000     -30.90690000     -71.13450000
C      -44.66280000     -32.12560000     -72.66480000
C      -44.73470000     -32.63110000     -73.94330000
C      -46.07750000     -32.02950000     -72.17530000
H      -44.00690000     -32.57030000     -74.76700000
C      -46.99860000     -32.46210000     -73.12910000
C      -46.76820000     -31.55440000     -71.00770000
C      -48.11990000     -31.70560000     -71.11410000
S      -46.31670000     -32.95130000     -74.62200000
S      -48.66890000     -32.26260000     -72.71630000
H      -48.88470000     -31.31400000     -70.46160000
