40
Properties=species:S:1:pos:R:3 #=T CELL(abcABC):=T 1.889726e+02=T 90.00000=T Traj:=T positionsangstrom=T Step:=T 0=T Bead:=T pbc="F F F"
C      -47.37190000     -32.33310000     -74.48980000
C      -47.39970000     -31.53200000     -73.32890000
C      -48.01320000     -31.98180000     -72.16510000
C      -48.69320000     -33.21200000     -72.16790000
C      -48.70460000     -34.01880000     -73.29700000
C      -48.03780000     -33.58060000     -74.48730000
H      -46.88540000     -31.95600000     -75.45920000
H      -48.12380000     -31.37480000     -71.28740000
H      -49.24970000     -34.96030000     -73.25420000
H      -48.09510000     -34.08630000     -75.44270000
C      -49.44470000     -33.64870000     -70.91250000
H      -50.46440000     -33.76720000     -71.18860000
H      -49.44850000     -32.86890000     -70.11570000
C      -46.59630000     -30.25750000     -73.38080000
H      -47.00010000     -29.56910000     -74.10610000
H      -46.60800000     -29.69910000     -72.45400000
S      -48.76330000     -35.23960000     -70.29860000
S      -44.80230000     -30.34430000     -73.75910000
C      -47.12540000     -34.78060000     -69.53960000
H      -47.20930000     -33.79640000     -69.07940000
H      -46.88850000     -35.48230000     -68.79260000
C      -43.96150000     -31.74870000     -72.89610000
H      -42.85890000     -31.78900000     -73.14680000
H      -44.40290000     -32.70680000     -73.30360000
C      -44.09290000     -31.71080000     -71.41070000
H      -43.89850000     -30.70110000     -71.00750000
H      -45.11890000     -31.95460000     -71.19310000
C      -46.04660000     -34.65110000     -70.66440000
H      -46.14140000     -33.63540000     -71.09370000
H      -46.32590000     -35.30450000     -71.55620000
C      -44.57780000     -34.79940000     -70.23450000
C      -44.27190000     -36.01050000     -69.68630000
C      -43.46300000     -33.86910000     -70.23300000
H      -44.94490000     -36.84560000     -69.63230000
C      -42.33690000     -34.45720000     -69.59140000
C      -43.11370000     -32.58910000     -70.69340000
C      -41.82020000     -32.17690000     -70.40800000
S      -42.57330000     -36.12420000     -68.97450000
S      -40.90170000     -33.42200000     -69.54190000
H      -41.38760000     -31.21230000     -70.73220000
