40
Properties=species:S:1:pos:R:3 #=T CELL(abcABC):=T 1.889726e+02=T 90.00000=T Traj:=T positionsangstrom=T Step:=T 0=T Bead:=T pbc="F F F"
C      -44.67930000     -35.71640000     -68.64870000
C      -45.45690000     -35.14930000     -69.67810000
C      -44.93440000     -35.12030000     -70.95940000
C      -43.62130000     -35.59100000     -71.26890000
C      -42.86500000     -36.13950000     -70.22180000
C      -43.35950000     -36.13860000     -68.90780000
H      -45.01550000     -35.69060000     -67.63030000
H      -45.66720000     -34.78880000     -71.72860000
H      -41.82180000     -36.50080000     -70.31040000
H      -42.74890000     -36.49700000     -68.02660000
C      -43.15440000     -35.26540000     -72.61680000
H      -43.92560000     -34.92330000     -73.20560000
H      -42.73890000     -36.14150000     -73.15500000
C      -46.83970000     -34.72240000     -69.25140000
H      -47.41250000     -34.42330000     -70.01450000
H      -47.34790000     -35.43790000     -68.69880000
S      -41.71030000     -34.08320000     -72.49660000
S      -46.88340000     -33.21240000     -68.08520000
C      -42.64360000     -32.81130000     -71.41770000
H      -43.24910000     -33.36590000     -70.73070000
H      -41.83130000     -32.38320000     -70.82870000
C      -45.53370000     -32.18580000     -68.77640000
H      -44.78900000     -32.78360000     -69.34720000
H      -45.01500000     -31.61030000     -67.97330000
C      -45.94200000     -31.05990000     -69.73460000
H      -46.52200000     -30.29460000     -69.24270000
H      -45.04950000     -30.38970000     -69.93190000
C      -43.43360000     -31.63990000     -72.16580000
H      -42.75560000     -31.38460000     -72.95150000
H      -43.45270000     -30.75070000     -71.47260000
C      -44.77490000     -32.05980000     -72.78450000
C      -44.70430000     -32.58220000     -74.04100000
C      -46.10000000     -32.09210000     -72.18170000
H      -43.88790000     -32.53770000     -74.72200000
C      -47.11100000     -32.36940000     -73.16260000
C      -46.70360000     -31.48360000     -70.99370000
C      -48.07020000     -31.52250000     -71.00550000
S      -46.39570000     -32.96220000     -74.65940000
S      -48.76370000     -32.22120000     -72.45370000
H      -48.73320000     -31.17670000     -70.22550000
