40
Properties=species:S:1:pos:R:3 #=T CELL(abcABC):=T 1.889726e+02=T 90.00000=T Traj:=T positionsangstrom=T Step:=T 0=T Bead:=T pbc="F F F"
C      -44.99930000     -36.47420000     -68.87720000
C      -45.70950000     -35.49360000     -69.55450000
C      -45.10760000     -34.95300000     -70.72440000
C      -43.86290000     -35.45380000     -71.16050000
C      -43.10330000     -36.39630000     -70.39690000
C      -43.73940000     -36.94660000     -69.25190000
H      -45.47310000     -36.90140000     -67.99470000
H      -45.54660000     -34.24490000     -71.36930000
H      -42.09760000     -36.63620000     -70.69890000
H      -43.19120000     -37.68270000     -68.65120000
C      -43.26360000     -34.81910000     -72.40350000
H      -44.07830000     -34.42970000     -73.02090000
H      -42.66280000     -35.54350000     -72.92620000
C      -46.95180000     -34.89190000     -69.05990000
H      -47.54860000     -34.47860000     -69.88990000
H      -47.62640000     -35.57010000     -68.45430000
S      -41.95350000     -33.51550000     -72.06300000
S      -46.82900000     -33.43360000     -67.86810000
C      -42.76880000     -32.25810000     -70.98830000
H      -43.53770000     -32.89460000     -70.36310000
H      -41.96870000     -31.94110000     -70.23800000
C      -45.73610000     -32.21250000     -68.87100000
H      -45.13360000     -32.78860000     -69.50060000
H      -45.08690000     -31.70810000     -68.17850000
C      -46.52470000     -31.23100000     -69.69370000
H      -47.43330000     -30.92030000     -69.27040000
H      -46.06130000     -30.25240000     -69.80240000
C      -43.50120000     -31.17020000     -71.66130000
H      -42.91100000     -30.39310000     -72.14770000
H      -43.98500000     -30.59900000     -70.91110000
C      -44.61100000     -31.62230000     -72.62050000
C      -44.32000000     -31.90090000     -73.90120000
C      -46.00350000     -31.94920000     -72.27930000
H      -43.31430000     -32.00410000     -74.34330000
C      -46.67530000     -32.45130000     -73.39370000
C      -46.94740000     -31.75890000     -71.15930000
C      -48.19390000     -32.16380000     -71.53340000
S      -45.68390000     -32.51780000     -74.81450000
S      -48.35600000     -32.82060000     -73.10590000
H      -48.98320000     -32.25770000     -70.85440000
