40
Properties=species:S:1:pos:R:3 #=T CELL(abcABC):=T 1.889726e+02=T 90.00000=T Traj:=T positionsangstrom=T Step:=T 0=T Bead:=T pbc="F F F"
C      -44.95500000     -36.38130000     -68.87990000
C      -45.59890000     -35.30840000     -69.51240000
C      -45.09410000     -34.78800000     -70.70580000
C      -43.90010000     -35.38150000     -71.23160000
C      -43.39430000     -36.60250000     -70.69760000
C      -43.92190000     -37.07420000     -69.50720000
H      -45.32830000     -36.72120000     -67.94850000
H      -45.46340000     -33.96460000     -71.23780000
H      -42.54530000     -37.02620000     -71.23050000
H      -43.44240000     -37.94300000     -68.99360000
C      -43.30790000     -34.74420000     -72.43110000
H      -44.04160000     -34.16620000     -73.00620000
H      -42.93600000     -35.43000000     -73.21800000
C      -46.91940000     -34.86560000     -68.91560000
H      -47.65050000     -34.87390000     -69.66290000
H      -47.21270000     -35.64590000     -68.21520000
S      -41.90990000     -33.56750000     -72.02640000
S      -46.74690000     -33.39900000     -67.85330000
C      -42.71250000     -32.22980000     -70.91490000
H      -43.33860000     -32.69880000     -70.19470000
H      -41.98700000     -31.77460000     -70.37990000
C      -45.77090000     -32.13160000     -68.74070000
H      -44.92780000     -32.71280000     -69.27310000
H      -45.33600000     -31.48630000     -67.99030000
C      -46.51150000     -31.19040000     -69.77720000
H      -47.45080000     -30.86100000     -69.28130000
H      -45.75730000     -30.39510000     -69.80000000
C      -43.52430000     -31.13580000     -71.74490000
H      -42.75600000     -30.59440000     -72.37990000
H      -43.97070000     -30.39310000     -70.99710000
C      -44.62750000     -31.64510000     -72.65640000
C      -44.30800000     -31.92430000     -73.93820000
C      -45.98160000     -31.93440000     -72.31980000
H      -43.35600000     -31.84610000     -74.37600000
C      -46.73160000     -32.34930000     -73.39280000
C      -46.80970000     -31.89690000     -71.09540000
C      -48.11040000     -32.34600000     -71.30360000
S      -45.68080000     -32.68230000     -74.80280000
S      -48.43290000     -32.73950000     -73.07670000
H      -48.88220000     -32.09530000     -70.57650000
