40
Properties=species:S:1:pos:R:3 #=T CELL(abcABC):=T 1.889726e+02=T 90.00000=T Traj:=T positionsangstrom=T Step:=T 0=T Bead:=T pbc="F F F"
C      -45.97800000     -31.16780000     -74.11050000
C      -44.92100000     -32.08100000     -74.47660000
C      -45.32410000     -33.39970000     -74.62370000
C      -46.63180000     -33.85950000     -74.40820000
C      -47.57440000     -32.93080000     -73.90350000
C      -47.25690000     -31.59590000     -73.84010000
H      -45.76360000     -30.13150000     -73.87590000
H      -44.70640000     -34.18420000     -75.16830000
H      -48.54320000     -33.21270000     -73.64060000
H      -48.06950000     -30.88460000     -73.66130000
C      -46.86510000     -35.28840000     -74.65520000
H      -46.37750000     -35.46500000     -75.65050000
H      -47.88730000     -35.51850000     -74.86050000
C      -43.50370000     -31.63840000     -74.47750000
H      -43.01980000     -32.09650000     -75.42150000
H      -43.48210000     -30.50170000     -74.42600000
S      -46.11670000     -36.47650000     -73.41050000
S      -42.36910000     -32.06500000     -72.98830000
C      -46.76760000     -35.94060000     -71.77900000
H      -47.71480000     -35.41420000     -71.88930000
H      -46.88770000     -36.79900000     -71.26390000
C      -43.35230000     -32.21220000     -71.47500000
H      -44.40970000     -32.31810000     -71.77960000
H      -43.38450000     -31.28900000     -70.88570000
C      -42.88760000     -33.30750000     -70.47680000
H      -42.95790000     -34.30380000     -70.92960000
H      -41.82940000     -33.25680000     -70.14890000
C      -45.77950000     -35.02050000     -71.11110000
H      -45.51550000     -34.19790000     -71.89880000
H      -44.75770000     -35.39950000     -70.98320000
C      -46.07040000     -34.33410000     -69.82370000
C      -47.31900000     -34.30070000     -69.21510000
C      -45.16290000     -33.50040000     -69.11140000
H      -48.23130000     -34.81280000     -69.42670000
C      -45.69560000     -32.95050000     -67.91740000
C      -43.72750000     -33.19090000     -69.22390000
C      -43.25210000     -32.42210000     -68.18460000
S      -47.31350000     -33.45030000     -67.64260000
S      -44.47070000     -32.15250000     -66.96990000
H      -42.21420000     -32.03960000     -68.21200000
