40
Properties=species:S:1:pos:R:3 #=T CELL(abcABC):=T 1.889726e+02=T 90.00000=T Traj:=T positionsangstrom=T Step:=T 0=T Bead:=T pbc="F F F"
C      -45.21230000     -34.48270000     -75.32310000
C      -45.27610000     -35.23860000     -74.11370000
C      -46.52690000     -35.29860000     -73.39220000
C      -47.65010000     -34.50330000     -73.82200000
C      -47.57470000     -33.82500000     -75.03240000
C      -46.36060000     -33.79720000     -75.77380000
H      -44.32530000     -34.54970000     -75.89710000
H      -46.64170000     -35.98090000     -72.53750000
H      -48.34330000     -33.07830000     -75.23470000
H      -46.42110000     -33.23890000     -76.71800000
C      -48.88150000     -34.54820000     -72.99920000
H      -48.89820000     -35.54800000     -72.45910000
H      -49.70530000     -34.46900000     -73.69450000
C      -44.07080000     -35.94770000     -73.61460000
H      -44.26180000     -36.30840000     -72.55370000
H      -43.81840000     -36.88490000     -74.20250000
S      -49.10440000     -33.24400000     -71.71670000
S      -42.54280000     -34.88760000     -73.61580000
C      -47.43400000     -32.79420000     -71.03240000
H      -46.73040000     -32.47180000     -71.83170000
H      -47.60570000     -31.89660000     -70.42930000
C      -42.62080000     -34.05440000     -71.96970000
H      -41.67520000     -33.62760000     -71.81950000
H      -42.81760000     -34.73500000     -71.15590000
C      -43.78390000     -33.02970000     -71.82050000
H      -43.74580000     -32.31010000     -72.62600000
H      -44.68480000     -33.58210000     -71.87700000
C      -46.73280000     -33.88090000     -70.22130000
H      -46.04540000     -34.38190000     -70.89590000
H      -47.33360000     -34.55930000     -69.63990000
C      -45.91660000     -33.21760000     -69.13090000
C      -46.35090000     -33.05020000     -67.88160000
C      -44.60780000     -32.52770000     -69.30560000
H      -47.20230000     -33.55060000     -67.40960000
C      -44.15450000     -31.88150000     -68.15580000
C      -43.70420000     -32.36840000     -70.44010000
C      -42.60360000     -31.60640000     -70.08720000
S      -45.27500000     -32.01610000     -66.89070000
S      -42.62530000     -31.07520000     -68.37200000
H      -41.88250000     -31.23630000     -70.84840000
