40
Properties=species:S:1:pos:R:3 #=T CELL(abcABC):=T 1.889726e+02=T 90.00000=T Traj:=T positionsangstrom=T Step:=T 0=T Bead:=T pbc="F F F"
C      -46.83480000     -30.60830000     -74.06870000
C      -46.80360000     -30.48540000     -72.68070000
C      -47.64700000     -31.31530000     -71.96970000
C      -48.45310000     -32.32660000     -72.56390000
C      -48.57210000     -32.37070000     -73.92530000
C      -47.78700000     -31.48900000     -74.65090000
H      -46.26090000     -29.90900000     -74.74000000
H      -47.60750000     -31.27880000     -70.93740000
H      -49.27370000     -32.99140000     -74.48530000
H      -47.70650000     -31.67060000     -75.78100000
C      -49.40610000     -33.08890000     -71.67720000
H      -50.25080000     -33.30430000     -72.27840000
H      -49.73950000     -32.53260000     -70.77580000
C      -45.98880000     -29.41550000     -71.99960000
H      -46.04170000     -28.45720000     -72.54460000
H      -46.60920000     -29.15550000     -71.03970000
S      -48.78510000     -34.80380000     -71.27350000
S      -44.21990000     -29.65190000     -71.64720000
C      -47.01890000     -34.58940000     -70.57670000
H      -46.96670000     -33.59380000     -70.10480000
H      -46.86630000     -35.36200000     -69.79490000
C      -43.91460000     -31.46630000     -71.67460000
H      -42.92310000     -31.82230000     -72.08390000
H      -44.75410000     -31.82790000     -72.30070000
C      -44.07760000     -32.14950000     -70.24550000
H      -43.82110000     -31.49470000     -69.46140000
H      -45.16390000     -32.30200000     -70.14760000
C      -45.95550000     -34.52330000     -71.68080000
H      -45.76220000     -33.44630000     -71.93530000
H      -46.26350000     -34.99460000     -72.58090000
C      -44.68800000     -35.28730000     -71.20770000
C      -44.64130000     -36.61350000     -71.41320000
C      -43.59760000     -34.79970000     -70.41480000
H      -45.42870000     -37.14050000     -71.95980000
C      -42.68890000     -35.73740000     -69.98910000
C      -43.29760000     -33.46470000     -69.95540000
C      -42.13310000     -33.49110000     -69.15510000
S      -43.21000000     -37.35910000     -70.63030000
S      -41.47200000     -35.10940000     -68.96610000
H      -41.70420000     -32.63330000     -68.58140000
