40
Properties=species:S:1:pos:R:3 #=T CELL(abcABC):=T 1.889726e+02=T 90.00000=T Traj:=T positionsangstrom=T Step:=T 0=T Bead:=T pbc="F F F"
C      -47.00270000     -33.94320000     -75.29180000
C      -46.22390000     -32.88560000     -74.85300000
C      -44.90650000     -33.08000000     -74.61150000
C      -44.28030000     -34.31970000     -74.79650000
C      -45.07610000     -35.39790000     -75.20410000
C      -46.49150000     -35.20260000     -75.39190000
H      -48.10960000     -33.81050000     -75.37720000
H      -44.31570000     -32.33930000     -74.11440000
H      -44.74020000     -36.40190000     -75.14410000
H      -47.00770000     -36.05420000     -75.86470000
C      -42.86840000     -34.57340000     -74.24690000
H      -42.47610000     -33.52970000     -73.95860000
H      -42.20340000     -34.99020000     -75.02030000
C      -46.90900000     -31.60600000     -74.57670000
H      -46.50100000     -30.73300000     -75.07770000
H      -47.91780000     -31.79330000     -74.95690000
S      -42.80870000     -35.78820000     -72.81920000
S      -47.03020000     -31.20110000     -72.78490000
C      -43.35650000     -34.47800000     -71.43040000
H      -42.44710000     -34.14420000     -70.86800000
H      -43.66550000     -33.64580000     -72.06650000
C      -46.74230000     -32.88430000     -72.00890000
H      -45.65850000     -33.00390000     -71.75680000
H      -47.03170000     -33.68190000     -72.69270000
C      -47.46770000     -33.12140000     -70.68490000
H      -48.56420000     -32.69300000     -70.75340000
H      -47.56000000     -34.23300000     -70.42870000
C      -44.41630000     -35.07510000     -70.46330000
H      -44.06750000     -36.11950000     -70.21410000
H      -45.35740000     -35.16530000     -70.97880000
C      -44.61610000     -34.26870000     -69.23080000
C      -43.77720000     -34.54930000     -68.17390000
C      -45.53750000     -33.23550000     -68.92100000
H      -43.07870000     -35.34900000     -68.15880000
C      -45.21180000     -32.62200000     -67.66100000
C      -46.68540000     -32.55240000     -69.54750000
C      -47.16360000     -31.52380000     -68.72250000
S      -43.97100000     -33.46970000     -66.83620000
S      -46.12280000     -31.16010000     -67.36850000
H      -47.87910000     -30.85160000     -69.15490000
