40
Properties=species:S:1:pos:R:3 #=T CELL(abcABC):=T 1.889726e+02=T 90.00000=T Traj:=T positionsangstrom=T Step:=T 0=T Bead:=T pbc="F F F"
C      -44.71360000     -36.27250000     -68.80590000
C      -45.35260000     -35.33270000     -69.65600000
C      -44.63200000     -34.93960000     -70.81790000
C      -43.33310000     -35.35360000     -71.11660000
C      -42.73120000     -36.38380000     -70.24810000
C      -43.41690000     -36.77370000     -69.10650000
H      -45.19900000     -36.44500000     -67.78850000
H      -45.07640000     -34.24690000     -71.58890000
H      -41.67580000     -36.65500000     -70.40460000
H      -43.05340000     -37.55540000     -68.49420000
C      -42.68690000     -34.93610000     -72.38980000
H      -43.32500000     -34.84120000     -73.25580000
H      -41.92530000     -35.76180000     -72.67430000
C      -46.75300000     -34.73210000     -69.39280000
H      -47.10500000     -34.32090000     -70.38850000
H      -47.45460000     -35.47560000     -69.07100000
S      -41.66680000     -33.23650000     -72.31670000
S      -46.71540000     -33.56530000     -68.00380000
C      -42.69940000     -32.14600000     -71.28660000
H      -43.13820000     -32.75580000     -70.49710000
H      -41.95430000     -31.39790000     -70.91260000
C      -45.71340000     -32.24030000     -68.79570000
H      -44.78690000     -32.53610000     -69.35600000
H      -45.28380000     -31.63260000     -67.94040000
C      -46.45550000     -31.26710000     -69.71070000
H      -47.31050000     -30.87080000     -69.06060000
H      -45.81740000     -30.37700000     -69.82770000
C      -43.80050000     -31.22220000     -71.99660000
H      -43.29920000     -30.59750000     -72.76750000
H      -44.28480000     -30.68110000     -71.18290000
C      -44.87660000     -32.04840000     -72.63930000
C      -44.68210000     -32.61780000     -73.86430000
C      -46.34110000     -32.02720000     -72.30700000
H      -43.74410000     -32.64820000     -74.31250000
C      -47.17720000     -32.40550000     -73.31660000
C      -46.96340000     -31.79700000     -71.03190000
C      -48.33650000     -31.86600000     -71.22480000
S      -46.20420000     -33.02380000     -74.67840000
S      -48.83810000     -32.40590000     -72.74080000
H      -49.19280000     -31.66920000     -70.54580000
