40
Properties=species:S:1:pos:R:3 #=T CELL(abcABC):=T 1.889726e+02=T 90.00000=T Traj:=T positionsangstrom=T Step:=T 0=T Bead:=T pbc="F F F"
C      -41.99940000     -30.80830000     -72.68820000
C      -42.29080000     -31.50780000     -71.52190000
C      -42.36450000     -32.93600000     -71.57650000
C      -42.19680000     -33.58130000     -72.77540000
C      -42.00700000     -32.84860000     -73.93560000
C      -41.85900000     -31.45560000     -73.88120000
H      -41.91510000     -29.73540000     -72.71030000
H      -42.42490000     -33.45760000     -70.69830000
H      -41.94180000     -33.36430000     -74.92020000
H      -41.52910000     -30.94820000     -74.75980000
C      -42.34340000     -35.11680000     -72.80380000
H      -42.44070000     -35.58360000     -71.76950000
H      -41.49670000     -35.52850000     -73.31200000
C      -42.52490000     -30.77440000     -70.27540000
H      -42.49250000     -31.42500000     -69.36810000
H      -41.76160000     -30.00220000     -70.10330000
S      -43.67040000     -35.70090000     -73.94540000
S      -44.30010000     -30.02080000     -70.10820000
C      -45.14210000     -35.75660000     -72.78510000
H      -45.70420000     -36.68040000     -73.15100000
H      -44.82650000     -36.12840000     -71.85670000
C      -45.31390000     -31.51150000     -70.62270000
H      -44.87910000     -31.87710000     -71.50500000
H      -46.35470000     -31.21400000     -70.68300000
C      -45.17410000     -32.67740000     -69.62570000
H      -44.27750000     -33.41080000     -69.96400000
H      -44.81560000     -32.33310000     -68.69350000
C      -45.83560000     -34.43860000     -72.66670000
H      -46.06930000     -34.17280000     -73.71060000
H      -45.31150000     -33.65160000     -72.15910000
C      -47.06380000     -34.59530000     -71.81710000
C      -48.25250000     -35.09510000     -72.29810000
C      -47.24090000     -34.09370000     -70.45180000
H      -48.40920000     -35.58790000     -73.30740000
C      -48.49340000     -34.41950000     -69.93500000
C      -46.52190000     -33.36100000     -69.47240000
C      -47.15330000     -33.21840000     -68.26080000
S      -49.56550000     -35.11810000     -71.13350000
S      -48.79070000     -33.78340000     -68.29840000
H      -46.72040000     -32.74910000     -67.31470000
