40
Properties=species:S:1:pos:R:3 #=T CELL(abcABC):=T 1.889726e+02=T 90.00000=T Traj:=T positionsangstrom=T Step:=T 0=T Bead:=T pbc="F F F"
C      -45.75830000     -32.76850000     -75.43300000
C      -45.19860000     -32.54270000     -74.17560000
C      -44.15830000     -33.43320000     -73.74890000
C      -43.85330000     -34.59340000     -74.46650000
C      -44.40680000     -34.75630000     -75.75390000
C      -45.36320000     -33.81590000     -76.23370000
H      -46.41020000     -32.00790000     -75.82520000
H      -43.77680000     -33.47660000     -72.73860000
H      -44.11760000     -35.59430000     -76.39710000
H      -45.83980000     -34.00420000     -77.24110000
C      -42.90450000     -35.56190000     -73.85630000
H      -42.03110000     -35.09500000     -73.52020000
H      -42.54120000     -36.19750000     -74.69570000
C      -45.63210000     -31.34300000     -73.32130000
H      -44.88670000     -31.04510000     -72.60220000
H      -45.69080000     -30.40890000     -73.97220000
S      -43.57260000     -36.59660000     -72.45400000
S      -47.27780000     -31.56770000     -72.49940000
C      -43.37560000     -35.32990000     -71.08360000
H      -42.55930000     -35.63580000     -70.40990000
H      -42.95930000     -34.38860000     -71.51950000
C      -47.33900000     -33.37210000     -72.17390000
H      -46.39050000     -33.91540000     -72.43840000
H      -48.00810000     -33.68740000     -72.98100000
C      -47.79400000     -33.71440000     -70.74750000
H      -48.85380000     -33.49220000     -70.71830000
H      -47.61750000     -34.82680000     -70.66710000
C      -44.68370000     -35.13600000     -70.32910000
H      -44.98400000     -36.12500000     -69.89580000
H      -45.45370000     -34.85760000     -71.09720000
C      -44.72650000     -34.15660000     -69.21990000
C      -43.66960000     -33.93840000     -68.33610000
C      -45.80840000     -33.18100000     -69.05680000
H      -42.76610000     -34.53500000     -68.30990000
C      -45.49380000     -32.25390000     -68.04010000
C      -47.06120000     -33.00870000     -69.69470000
C      -47.73990000     -31.93900000     -69.11380000
S      -43.89220000     -32.49940000     -67.35640000
S      -46.75810000     -31.06000000     -67.95080000
H      -48.68500000     -31.56980000     -69.48220000
