40
Properties=species:S:1:pos:R:3 #=T CELL(abcABC):=T 1.889726e+02=T 90.00000=T Traj:=T positionsangstrom=T Step:=T 0=T Bead:=T pbc="F F F"
C      -45.57050000     -32.59110000     -75.45250000
C      -45.14470000     -32.51840000     -74.14260000
C      -44.35310000     -33.52770000     -73.60700000
C      -43.89520000     -34.56900000     -74.44970000
C      -44.26270000     -34.58440000     -75.78840000
C      -45.11040000     -33.59040000     -76.32960000
H      -46.32110000     -31.89740000     -75.91820000
H      -43.82190000     -33.37840000     -72.61860000
H      -43.94660000     -35.45200000     -76.35850000
H      -45.44350000     -33.75620000     -77.37600000
C      -42.85790000     -35.50310000     -73.85720000
H      -42.04140000     -34.88800000     -73.35770000
H      -42.45720000     -36.20890000     -74.59890000
C      -45.67800000     -31.37600000     -73.27050000
H      -44.92750000     -31.22620000     -72.49840000
H      -45.84050000     -30.53660000     -73.92490000
S      -43.50550000     -36.56840000     -72.42830000
S      -47.33990000     -31.64700000     -72.42900000
C      -43.31630000     -35.47560000     -70.92550000
H      -42.60210000     -35.93910000     -70.19060000
H      -42.82020000     -34.49840000     -71.16330000
C      -47.60110000     -33.47140000     -72.24990000
H      -46.73400000     -34.08250000     -72.61710000
H      -48.49880000     -33.82860000     -72.68350000
C      -47.81870000     -33.75070000     -70.71540000
H      -48.87520000     -33.85240000     -70.41590000
H      -47.53270000     -34.80520000     -70.53210000
C      -44.69990000     -35.27620000     -70.38000000
H      -45.03930000     -36.21630000     -70.04690000
H      -45.38220000     -34.97120000     -71.18750000
C      -44.82740000     -34.17750000     -69.31380000
C      -43.74910000     -33.97750000     -68.44970000
C      -45.81530000     -33.12280000     -69.17520000
H      -42.89560000     -34.54630000     -68.22910000
C      -45.50380000     -32.30500000     -68.16810000
C      -47.13280000     -32.89320000     -69.68370000
C      -47.69730000     -31.74960000     -69.11630000
S      -43.96770000     -32.59150000     -67.41760000
S      -46.65220000     -31.04000000     -67.92300000
H      -48.71230000     -31.45170000     -69.32200000
