40
Properties=species:S:1:pos:R:3 #=T CELL(abcABC):=T 1.889726e+02=T 90.00000=T Traj:=T positionsangstrom=T Step:=T 0=T Bead:=T pbc="F F F"
C      -45.12670000     -32.08560000     -75.05940000
C      -45.32440000     -32.10320000     -73.64940000
C      -44.62820000     -32.99480000     -72.90700000
C      -43.76610000     -33.95480000     -73.53030000
C      -43.59350000     -33.86490000     -74.92610000
C      -44.22580000     -32.90450000     -75.71400000
H      -45.79230000     -31.43950000     -75.62230000
H      -44.59720000     -33.02530000     -71.88540000
H      -42.79900000     -34.46990000     -75.42330000
H      -44.00370000     -32.80110000     -76.79220000
C      -43.05730000     -34.99080000     -72.66270000
H      -42.90290000     -34.71680000     -71.66610000
H      -42.08190000     -35.20580000     -73.06680000
C      -46.48160000     -31.33690000     -73.04530000
H      -46.27170000     -31.05360000     -71.97950000
H      -46.67000000     -30.39070000     -73.56300000
S      -43.94500000     -36.66830000     -72.41580000
S      -48.11290000     -32.25720000     -73.28000000
C      -44.40070000     -36.76010000     -70.66570000
H      -44.82100000     -37.72890000     -70.46380000
H      -43.46970000     -36.69200000     -70.07000000
C      -47.85200000     -33.74800000     -72.21880000
H      -46.94920000     -34.34060000     -72.46430000
H      -48.63640000     -34.40620000     -72.61500000
C      -47.89960000     -33.56150000     -70.68190000
H      -48.85060000     -33.24860000     -70.41430000
H      -47.83050000     -34.63960000     -70.36330000
C      -45.37980000     -35.76970000     -70.09160000
H      -45.98100000     -36.22940000     -69.33280000
H      -46.04870000     -35.51270000     -70.89750000
C      -44.86590000     -34.49290000     -69.41520000
C      -43.64630000     -34.39370000     -68.76330000
C      -45.63240000     -33.26190000     -69.31830000
H      -42.95130000     -35.18650000     -68.65370000
C      -44.99490000     -32.28810000     -68.59050000
C      -46.87420000     -32.76890000     -69.87690000
C      -47.18860000     -31.55270000     -69.33090000
S      -43.43200000     -32.77570000     -68.00520000
S      -45.85740000     -30.73680000     -68.48890000
H      -48.13990000     -31.02120000     -69.53820000
