40
Properties=species:S:1:pos:R:3 #=T CELL(abcABC):=T 1.889726e+02=T 90.00000=T Traj:=T positionsangstrom=T Step:=T 0=T Bead:=T pbc="F F F"
C      -45.00970000     -32.08210000     -75.23270000
C      -45.40220000     -32.24440000     -73.90210000
C      -44.84680000     -33.29400000     -73.16620000
C      -43.87570000     -34.18060000     -73.62170000
C      -43.58950000     -34.07000000     -74.99160000
C      -44.15200000     -33.02690000     -75.77110000
H      -45.24000000     -31.14590000     -75.81400000
H      -45.07420000     -33.27790000     -72.08960000
H      -42.89330000     -34.72730000     -75.54820000
H      -43.87200000     -33.01400000     -76.86050000
C      -43.07990000     -35.00670000     -72.72710000
H      -42.99530000     -34.51510000     -71.71640000
H      -42.00690000     -35.08200000     -73.12400000
C      -46.39320000     -31.33760000     -73.26390000
H      -46.10160000     -31.04320000     -72.25800000
H      -46.39460000     -30.40770000     -73.79510000
S      -43.84580000     -36.68380000     -72.44300000
S      -48.08000000     -32.12320000     -73.06930000
C      -44.25080000     -36.61790000     -70.65980000
H      -44.54760000     -37.63150000     -70.35300000
H      -43.24760000     -36.38230000     -70.24790000
C      -47.80760000     -33.69160000     -72.18270000
H      -46.87350000     -34.17150000     -72.47520000
H      -48.65200000     -34.34090000     -72.41180000
C      -47.94090000     -33.52600000     -70.65790000
H      -48.84590000     -33.01180000     -70.37390000
H      -48.02800000     -34.54710000     -70.18630000
C      -45.24690000     -35.53430000     -70.30220000
H      -46.10120000     -36.06630000     -69.81810000
H      -45.59490000     -35.07640000     -71.26150000
C      -44.77310000     -34.37640000     -69.48150000
C      -43.63420000     -34.29840000     -68.72840000
C      -45.62620000     -33.21190000     -69.35840000
H      -42.96320000     -35.09750000     -68.43850000
C      -45.01170000     -32.23630000     -68.55010000
C      -46.86290000     -32.75060000     -69.92500000
C      -47.17650000     -31.48160000     -69.40590000
S      -43.50820000     -32.73210000     -67.86350000
S      -46.04900000     -30.90000000     -68.21330000
H      -48.11550000     -30.94190000     -69.50810000
