40
Properties=species:S:1:pos:R:3 #=T CELL(abcABC):=T 1.889726e+02=T 90.00000=T Traj:=T positionsangstrom=T Step:=T 0=T Bead:=T pbc="F F F"
C      -45.17430000     -32.36450000     -75.37260000
C      -45.37050000     -32.39650000     -73.99380000
C      -44.54980000     -33.21380000     -73.13590000
C      -43.58210000     -34.05280000     -73.63620000
C      -43.38290000     -33.93530000     -75.02570000
C      -44.19170000     -33.18920000     -75.88280000
H      -45.84010000     -31.87730000     -76.07010000
H      -44.93870000     -33.18550000     -72.05980000
H      -42.57820000     -34.55100000     -75.39090000
H      -43.98620000     -33.20260000     -76.94070000
C      -42.82750000     -35.10190000     -72.80360000
H      -42.57490000     -34.66540000     -71.82310000
H      -41.91340000     -35.44660000     -73.21220000
C      -46.39200000     -31.35910000     -73.31970000
H      -46.00100000     -31.12120000     -72.30810000
H      -46.53560000     -30.57520000     -74.11060000
S      -43.78380000     -36.72170000     -72.58440000
S      -48.14640000     -31.85490000     -72.92560000
C      -44.08560000     -36.51700000     -70.70300000
H      -44.32430000     -37.48920000     -70.34420000
H      -43.17710000     -36.28080000     -70.19890000
C      -47.86130000     -33.46360000     -72.10220000
H      -46.89550000     -33.73290000     -72.44880000
H      -48.56900000     -34.17770000     -72.53590000
C      -47.96990000     -33.62190000     -70.49900000
H      -49.02430000     -33.26190000     -70.28350000
H      -47.92320000     -34.70810000     -70.22500000
C      -45.26880000     -35.65560000     -70.23840000
H      -45.89760000     -36.24070000     -69.62420000
H      -45.95410000     -35.47160000     -71.06300000
C      -44.88800000     -34.38560000     -69.52200000
C      -43.69910000     -34.24910000     -68.87570000
C      -45.67620000     -33.17110000     -69.35680000
H      -42.89970000     -34.97920000     -68.76050000
C      -45.06410000     -32.24220000     -68.47630000
C      -47.04230000     -32.82040000     -69.68160000
C      -47.38160000     -31.54440000     -69.26910000
S      -43.59940000     -32.85900000     -67.81460000
S      -46.06330000     -30.83970000     -68.25990000
H      -48.26550000     -30.94760000     -69.42880000
