40
Properties=species:S:1:pos:R:3 #=T CELL(abcABC):=T 1.889726e+02=T 90.00000=T Traj:=T positionsangstrom=T Step:=T 0=T Bead:=T pbc="F F F"
C      -45.66980000     -32.84530000     -74.93450000
C      -45.16470000     -32.43200000     -73.63560000
C      -44.03750000     -33.14230000     -73.13460000
C      -43.52820000     -34.22980000     -73.87140000
C      -43.84940000     -34.44490000     -75.22110000
C      -44.95500000     -33.73150000     -75.76100000
H      -46.54830000     -32.30360000     -75.34730000
H      -43.76170000     -32.93250000     -72.12510000
H      -43.29660000     -35.11640000     -75.80970000
H      -45.26370000     -33.82700000     -76.78990000
C      -42.47370000     -35.05970000     -73.16180000
H      -42.02760000     -34.57350000     -72.25370000
H      -41.63540000     -35.37040000     -73.88700000
C      -45.85270000     -31.34270000     -72.80340000
H      -45.44790000     -31.27010000     -71.81980000
H      -45.80750000     -30.34630000     -73.17550000
S      -43.28940000     -36.72810000     -72.54000000
S      -47.74750000     -31.74760000     -72.70150000
C      -43.65190000     -36.06000000     -70.83070000
H      -43.79990000     -36.88720000     -70.12870000
H      -42.75630000     -35.51520000     -70.42690000
C      -47.83720000     -33.55900000     -72.26180000
H      -46.87610000     -34.09130000     -72.54580000
H      -48.58310000     -34.11560000     -72.84000000
C      -48.06530000     -33.79420000     -70.80520000
H      -49.15790000     -33.54970000     -70.61190000
H      -47.98260000     -34.90010000     -70.64440000
C      -44.96550000     -35.18620000     -70.70580000
H      -45.80030000     -35.91540000     -70.67240000
H      -44.97080000     -34.60180000     -71.66510000
C      -44.87520000     -34.19590000     -69.56460000
C      -43.82350000     -34.03620000     -68.67090000
C      -45.84420000     -33.16760000     -69.41620000
H      -42.96840000     -34.75180000     -68.56870000
C      -45.40860000     -32.19430000     -68.53100000
C      -47.17750000     -32.91730000     -69.91810000
C      -47.70130000     -31.81070000     -69.35660000
S      -43.89940000     -32.50790000     -67.69520000
S      -46.54090000     -30.98210000     -68.32490000
H      -48.65360000     -31.38290000     -69.56760000
