40
Properties=species:S:1:pos:R:3 #=T CELL(abcABC):=T 1.889726e+02=T 90.00000=T Traj:=T positionsangstrom=T Step:=T 0=T Bead:=T pbc="F F F"
C      -45.38230000     -32.33880000     -75.04000000
C      -45.14720000     -32.23390000     -73.63180000
C      -44.31820000     -33.23960000     -73.00540000
C      -43.84650000     -34.34240000     -73.74140000
C      -44.17950000     -34.51590000     -75.09050000
C      -44.92080000     -33.49220000     -75.73390000
H      -45.83960000     -31.51230000     -75.55860000
H      -44.05900000     -33.17190000     -71.98260000
H      -43.96110000     -35.42040000     -75.69760000
H      -45.16630000     -33.67000000     -76.80250000
C      -42.81240000     -35.26860000     -73.16560000
H      -42.31180000     -34.87620000     -72.30020000
H      -42.10320000     -35.56120000     -73.90610000
C      -45.95060000     -31.25380000     -72.85470000
H      -45.65660000     -31.23130000     -71.79020000
H      -45.91400000     -30.18410000     -73.12230000
S      -43.63630000     -36.86230000     -72.45440000
S      -47.82500000     -31.62070000     -72.79890000
C      -43.88980000     -36.37820000     -70.73610000
H      -44.02700000     -37.30960000     -70.11810000
H      -42.93740000     -35.98590000     -70.45060000
C      -47.84410000     -33.36840000     -72.37570000
H      -47.10020000     -34.02270000     -72.96680000
H      -48.80730000     -33.66770000     -72.77520000
C      -47.74410000     -33.76220000     -70.86020000
H      -48.76900000     -33.94780000     -70.43790000
H      -47.32000000     -34.79000000     -70.92520000
C      -45.02170000     -35.43840000     -70.50680000
H      -45.79480000     -36.05050000     -70.10310000
H      -45.34090000     -34.98400000     -71.48960000
C      -44.69020000     -34.27480000     -69.60820000
C      -43.52580000     -34.03050000     -68.91170000
C      -45.67290000     -33.16280000     -69.44500000
H      -42.57320000     -34.52750000     -68.94860000
C      -45.22760000     -32.21450000     -68.51510000
C      -46.99460000     -32.84830000     -69.93470000
C      -47.53110000     -31.72910000     -69.38580000
S      -43.64740000     -32.54310000     -67.81030000
S      -46.40760000     -31.00790000     -68.21660000
H      -48.57620000     -31.43580000     -69.41090000
