40
Properties=species:S:1:pos:R:3 #=T CELL(abcABC):=T 1.889726e+02=T 90.00000=T Traj:=T positionsangstrom=T Step:=T 0=T Bead:=T pbc="F F F"
C      -41.81870000     -31.49000000     -70.75100000
C      -42.40450000     -32.46890000     -69.92910000
C      -42.46160000     -33.78410000     -70.32780000
C      -41.84570000     -34.18910000     -71.57060000
C      -41.12710000     -33.24860000     -72.35220000
C      -41.19550000     -31.87230000     -71.99860000
H      -41.90640000     -30.43090000     -70.41490000
H      -42.94660000     -34.47350000     -69.66990000
H      -40.62210000     -33.54050000     -73.24750000
H      -40.77850000     -31.14940000     -72.79100000
C      -41.89710000     -35.59510000     -72.14540000
H      -42.35690000     -36.28410000     -71.43830000
H      -40.89580000     -36.00440000     -72.32400000
C      -42.96370000     -32.02030000     -68.59400000
H      -43.48860000     -32.82620000     -68.04690000
H      -42.15640000     -31.61380000     -67.94140000
S      -43.02990000     -35.54870000     -73.67880000
S      -44.24160000     -30.67190000     -68.75420000
C      -44.73430000     -35.62450000     -72.92700000
H      -45.43280000     -36.12430000     -73.61760000
H      -44.92820000     -36.17340000     -71.97020000
C      -45.31110000     -31.49120000     -70.00660000
H      -44.70600000     -31.50210000     -70.91990000
H      -46.00280000     -30.58940000     -70.26700000
C      -45.93120000     -32.78450000     -69.51120000
H      -45.21790000     -33.56650000     -69.74980000
H      -46.03210000     -32.67430000     -68.38210000
C      -45.24660000     -34.16060000     -72.67260000
H      -45.02250000     -33.58610000     -73.52660000
H      -44.76610000     -33.75910000     -71.81270000
C      -46.76190000     -34.00860000     -72.54040000
C      -47.58410000     -34.26160000     -73.67670000
C      -47.58330000     -33.65690000     -71.37240000
H      -47.15090000     -34.57280000     -74.61200000
C      -48.94330000     -33.69540000     -71.65420000
C      -47.27970000     -33.07950000     -70.10970000
C      -48.44750000     -32.74660000     -69.46960000
S      -49.25660000     -34.29470000     -73.27040000
S      -49.90520000     -33.25730000     -70.29090000
H      -48.43650000     -32.42230000     -68.36890000
