40
Properties=species:S:1:pos:R:3 #=T CELL(abcABC):=T 1.889726e+02=T 90.00000=T Traj:=T positionsangstrom=T Step:=T 0=T Bead:=T pbc="F F F"
C      -45.05950000     -32.24410000     -74.95770000
C      -45.46140000     -32.19440000     -73.59200000
C      -44.58540000     -32.84680000     -72.69960000
C      -43.54050000     -33.68170000     -73.13040000
C      -43.23870000     -33.69120000     -74.48760000
C      -43.96180000     -32.92230000     -75.39780000
H      -45.72270000     -31.78200000     -75.67140000
H      -44.78150000     -32.87900000     -71.57730000
H      -42.33720000     -34.19370000     -74.85840000
H      -43.69640000     -32.94880000     -76.45940000
C      -42.99640000     -34.80820000     -72.29620000
H      -42.76860000     -34.49100000     -71.30810000
H      -42.07580000     -35.21150000     -72.68550000
C      -46.60140000     -31.37430000     -73.02350000
H      -46.34770000     -30.99450000     -72.06130000
H      -46.79100000     -30.37460000     -73.43960000
S      -44.14760000     -36.25900000     -72.44160000
S      -48.21640000     -32.22490000     -72.87910000
C      -44.62790000     -36.83410000     -70.65550000
H      -45.21550000     -37.77500000     -70.87190000
H      -43.83910000     -37.15810000     -69.98220000
C      -48.02230000     -33.83670000     -71.94530000
H      -47.04650000     -34.30240000     -72.28470000
H      -48.86910000     -34.48840000     -72.27000000
C      -48.10500000     -33.74980000     -70.33480000
H      -49.11510000     -33.30940000     -70.18890000
H      -48.10090000     -34.71320000     -69.98830000
C      -45.66090000     -35.87490000     -69.97040000
H      -46.20810000     -36.37750000     -69.10120000
H      -46.38560000     -35.47900000     -70.70750000
C      -44.96300000     -34.67000000     -69.36950000
C      -43.64310000     -34.56200000     -68.93590000
C      -45.62740000     -33.41990000     -69.44660000
H      -42.98900000     -35.45870000     -68.75290000
C      -44.85340000     -32.34090000     -69.04920000
C      -46.95580000     -32.93750000     -69.81740000
C      -47.09980000     -31.56880000     -69.60300000
S      -43.24760000     -32.88190000     -68.54630000
S      -45.66450000     -30.77460000     -69.06310000
H      -47.98450000     -31.01010000     -69.73120000
