40
Properties=species:S:1:pos:R:3 #=T CELL(abcABC):=T 1.889726e+02=T 90.00000=T Traj:=T positionsangstrom=T Step:=T 0=T Bead:=T pbc="F F F"
C      -41.59460000     -31.45240000     -70.80720000
C      -42.28080000     -32.35630000     -70.00290000
C      -42.45300000     -33.65500000     -70.46580000
C      -41.94050000     -34.07660000     -71.67950000
C      -41.30440000     -33.19630000     -72.57400000
C      -41.12130000     -31.89500000     -72.05810000
H      -41.43020000     -30.43830000     -70.40040000
H      -43.08580000     -34.32910000     -69.86000000
H      -41.00950000     -33.49530000     -73.58680000
H      -40.73620000     -31.16160000     -72.83040000
C      -42.16740000     -35.52640000     -72.06670000
H      -42.72060000     -35.93350000     -71.19390000
H      -41.26210000     -36.09790000     -72.26460000
C      -42.83100000     -31.84120000     -68.70850000
H      -43.19120000     -32.73560000     -68.19510000
H      -42.01150000     -31.42670000     -68.15220000
S      -43.13320000     -35.80720000     -73.58610000
S      -44.21180000     -30.63710000     -68.77890000
C      -44.81410000     -35.41970000     -72.91840000
H      -45.42050000     -35.85500000     -73.72240000
H      -44.97390000     -36.10250000     -72.01610000
C      -45.52990000     -31.42590000     -69.86720000
H      -45.24410000     -31.46120000     -70.91110000
H      -46.39790000     -30.71560000     -69.88460000
C      -45.99830000     -32.76540000     -69.34020000
H      -45.22140000     -33.58290000     -69.47430000
H      -46.14410000     -32.74270000     -68.29120000
C      -45.22020000     -33.97140000     -72.59260000
H      -44.83830000     -33.19680000     -73.30690000
H      -44.66730000     -33.70880000     -71.65360000
C      -46.70860000     -33.96280000     -72.49350000
C      -47.50830000     -34.45830000     -73.59380000
C      -47.52580000     -33.50560000     -71.42570000
H      -47.18740000     -34.72150000     -74.55010000
C      -48.83470000     -33.59190000     -71.71590000
C      -47.23930000     -33.23750000     -70.03890000
C      -48.40190000     -33.17990000     -69.35250000
S      -49.20830000     -34.17830000     -73.30230000
S      -49.86650000     -33.42270000     -70.30980000
H      -48.48630000     -32.78080000     -68.25380000
