40
Properties=species:S:1:pos:R:3 #=T CELL(abcABC):=T 1.889726e+02=T 90.00000=T Traj:=T positionsangstrom=T Step:=T 0=T Bead:=T pbc="F F F"
C      -45.49140000     -34.71090000     -75.57260000
C      -45.11750000     -35.36810000     -74.41250000
C      -46.03160000     -35.40090000     -73.33250000
C      -47.25480000     -34.79180000     -73.44580000
C      -47.54010000     -33.88510000     -74.52890000
C      -46.60430000     -33.87940000     -75.53730000
H      -44.77590000     -34.70300000     -76.44620000
H      -45.75940000     -35.77920000     -72.39550000
H      -48.53890000     -33.45340000     -74.62050000
H      -46.74070000     -33.26160000     -76.34850000
C      -48.30310000     -34.94150000     -72.36400000
H      -47.89820000     -35.41230000     -71.50470000
H      -49.12510000     -35.67960000     -72.75750000
C      -43.72900000     -36.06960000     -74.23610000
H      -43.80190000     -36.80210000     -73.33560000
H      -43.24870000     -36.60990000     -75.14990000
S      -49.06180000     -33.32040000     -71.86610000
S      -42.38160000     -34.89750000     -73.63720000
C      -47.56100000     -32.62130000     -71.04770000
H      -46.82850000     -32.32340000     -71.83600000
H      -47.90960000     -31.71580000     -70.51630000
C      -43.08940000     -34.52180000     -72.00200000
H      -42.29840000     -34.39070000     -71.26320000
H      -43.62140000     -35.38150000     -71.72310000
C      -43.88100000     -33.15640000     -71.85830000
H      -43.56550000     -32.41700000     -72.58560000
H      -44.85650000     -33.37290000     -72.10440000
C      -46.94810000     -33.66240000     -70.07820000
H      -46.30230000     -34.38960000     -70.51270000
H      -47.78810000     -34.23120000     -69.52410000
C      -46.13580000     -32.81120000     -69.09600000
C      -46.57430000     -32.42130000     -67.85390000
C      -44.75420000     -32.36830000     -69.32250000
H      -47.49390000     -32.80440000     -67.33130000
C      -44.23640000     -31.73820000     -68.20630000
C      -43.77950000     -32.43710000     -70.46630000
C      -42.64350000     -31.81210000     -70.04390000
S      -45.39080000     -31.65910000     -66.93730000
S      -42.62810000     -31.08030000     -68.46000000
H      -41.75780000     -31.63390000     -70.63610000
