40
Properties=species:S:1:pos:R:3 #=T CELL(abcABC):=T 1.889726e+02=T 90.00000=T Traj:=T positionsangstrom=T Step:=T 0=T Bead:=T pbc="F F F"
C      -45.84160000     -32.70300000     -74.88400000
C      -45.35010000     -32.55160000     -73.58050000
C      -44.62910000     -33.63230000     -73.04200000
C      -44.34480000     -34.83160000     -73.69110000
C      -44.84330000     -34.93810000     -75.00870000
C      -45.53220000     -33.84520000     -75.58570000
H      -46.26530000     -31.78030000     -75.33600000
H      -44.23870000     -33.53990000     -72.01710000
H      -44.71070000     -35.90980000     -75.49160000
H      -45.95570000     -33.93350000     -76.63090000
C      -43.49260000     -35.88600000     -73.00050000
H      -43.03110000     -35.41720000     -72.09600000
H      -42.78530000     -36.41780000     -73.66360000
C      -45.60240000     -31.28870000     -72.83410000
H      -45.02510000     -31.21550000     -71.92370000
H      -45.31160000     -30.46310000     -73.56410000
S      -44.71430000     -37.11290000     -72.42680000
S      -47.40770000     -31.08690000     -72.46260000
C      -44.84090000     -36.75220000     -70.63050000
H      -45.19510000     -37.69270000     -70.16600000
H      -43.84590000     -36.38400000     -70.40250000
C      -47.82120000     -32.86840000     -71.77890000
H      -47.10100000     -33.55610000     -72.19800000
H      -48.71570000     -33.11800000     -72.28250000
C      -47.93550000     -32.90270000     -70.27100000
H      -48.78240000     -32.40880000     -69.97190000
H      -48.06940000     -33.91550000     -70.07590000
C      -45.72010000     -35.51290000     -70.16310000
H      -46.29810000     -35.76450000     -69.24950000
H      -46.34800000     -35.20950000     -71.00380000
C      -44.93200000     -34.31370000     -69.65910000
C      -43.62920000     -34.50410000     -69.23830000
C      -45.42590000     -32.95450000     -69.42510000
H      -42.99470000     -35.29560000     -69.37690000
C      -44.50950000     -32.11080000     -68.81500000
C      -46.70780000     -32.35370000     -69.60550000
C      -46.65180000     -30.99370000     -69.33420000
S      -42.99640000     -32.98070000     -68.60730000
S      -45.05020000     -30.46160000     -68.65660000
H      -47.39440000     -30.26700000     -69.33610000
