40
Properties=species:S:1:pos:R:3 #=T CELL(abcABC):=T 1.889726e+02=T 90.00000=T Traj:=T positionsangstrom=T Step:=T 0=T Bead:=T pbc="F F F"
C      -43.72960000     -36.46710000     -70.45630000
C      -44.47320000     -35.61340000     -71.30840000
C      -43.85190000     -34.42110000     -71.75480000
C      -42.49590000     -34.16970000     -71.50660000
C      -41.80780000     -35.09050000     -70.73220000
C      -42.39820000     -36.20990000     -70.21510000
H      -44.07220000     -37.41780000     -70.17210000
H      -44.40470000     -33.69710000     -72.37510000
H      -40.73000000     -34.99320000     -70.60570000
H      -41.80340000     -36.89140000     -69.55600000
C      -41.82660000     -32.96300000     -72.11520000
H      -42.07490000     -32.73480000     -73.10060000
H      -40.69710000     -33.03750000     -72.08270000
C      -45.91780000     -35.94780000     -71.68640000
H      -46.38610000     -35.09440000     -72.20150000
H      -46.16060000     -36.94820000     -72.11250000
S      -42.14500000     -31.37900000     -71.29550000
S      -46.90480000     -36.18220000     -70.04240000
C      -43.39790000     -31.77580000     -69.89690000
H      -43.59260000     -32.87250000     -69.87470000
H      -42.79770000     -31.53510000     -69.03850000
C      -46.47170000     -34.84710000     -68.93670000
H      -45.37660000     -34.70600000     -68.98520000
H      -46.71710000     -35.25680000     -67.97170000
C      -47.18590000     -33.51030000     -69.11370000
H      -48.12070000     -33.58720000     -68.64750000
H      -46.63430000     -32.78660000     -68.50450000
C      -44.66400000     -30.90210000     -69.99310000
H      -44.43820000     -29.86590000     -70.08840000
H      -45.18830000     -31.10200000     -69.06720000
C      -45.63550000     -31.19260000     -71.25930000
C      -45.22600000     -30.72030000     -72.46670000
C      -46.74230000     -32.13480000     -71.39060000
H      -44.52320000     -29.93210000     -72.53250000
C      -47.23450000     -32.19680000     -72.72100000
C      -47.50090000     -33.01880000     -70.51310000
C      -48.60280000     -33.53450000     -71.18370000
S      -46.20050000     -31.22460000     -73.80160000
S      -48.75710000     -33.11760000     -72.84960000
H      -49.27200000     -34.22660000     -70.66780000
