40
Properties=species:S:1:pos:R:3 #=T CELL(abcABC):=T 1.889726e+02=T 90.00000=T Traj:=T positionsangstrom=T Step:=T 0=T Bead:=T pbc="F F F"
C      -46.02890000     -32.86440000     -74.74590000
C      -45.31270000     -32.54510000     -73.60290000
C      -44.31390000     -33.49610000     -73.19520000
C      -44.08580000     -34.70330000     -73.90690000
C      -44.77960000     -34.92680000     -75.07290000
C      -45.74800000     -33.98500000     -75.50260000
H      -46.92860000     -32.30670000     -74.95400000
H      -43.78720000     -33.30910000     -72.31460000
H      -44.40800000     -35.70010000     -75.77700000
H      -46.20610000     -34.19900000     -76.46550000
C      -43.47220000     -35.91860000     -73.16430000
H      -42.92390000     -35.52210000     -72.31350000
H      -42.75210000     -36.44670000     -73.76520000
C      -45.62870000     -31.26860000     -72.79520000
H      -45.09570000     -31.15200000     -71.90090000
H      -45.29360000     -30.40470000     -73.38300000
S      -44.82440000     -36.98230000     -72.44650000
S      -47.49440000     -31.15260000     -72.54390000
C      -44.90370000     -36.70790000     -70.58350000
H      -45.31470000     -37.65790000     -70.26820000
H      -43.91960000     -36.85720000     -70.11040000
C      -47.95900000     -32.80870000     -71.90710000
H      -47.25110000     -33.59660000     -72.19560000
H      -48.99540000     -33.07920000     -72.20430000
C      -48.01880000     -32.76690000     -70.34030000
H      -48.74880000     -31.98150000     -70.15670000
H      -48.31490000     -33.75500000     -69.78560000
C      -45.70690000     -35.45290000     -70.16890000
H      -46.60800000     -35.68340000     -69.60870000
H      -46.07420000     -34.95740000     -71.09930000
C      -44.91890000     -34.43030000     -69.43560000
C      -43.65970000     -34.59400000     -68.93110000
C      -45.39890000     -33.05050000     -69.38030000
H      -43.12870000     -35.49820000     -68.86820000
C      -44.48040000     -32.18080000     -68.78800000
C      -46.68650000     -32.33740000     -69.64060000
C      -46.49830000     -30.98080000     -69.42740000
S      -43.00530000     -33.01310000     -68.36740000
S      -44.89440000     -30.46620000     -68.78260000
H      -47.22120000     -30.17610000     -69.53340000
