40
Properties=species:S:1:pos:R:3 #=T CELL(abcABC):=T 1.889726e+02=T 90.00000=T Traj:=T positionsangstrom=T Step:=T 0=T Bead:=T pbc="F F F"
C      -43.79430000     -36.41650000     -70.41870000
C      -44.55940000     -35.59290000     -71.21200000
C      -43.84160000     -34.59270000     -71.91360000
C      -42.51210000     -34.26290000     -71.73890000
C      -41.77510000     -35.15660000     -70.97650000
C      -42.41860000     -36.23070000     -70.42630000
H      -44.18400000     -37.07620000     -69.65790000
H      -44.48050000     -33.92630000     -72.48420000
H      -40.71950000     -35.04220000     -70.69830000
H      -41.95810000     -36.88890000     -69.71260000
C      -41.98870000     -32.94310000     -72.23450000
H      -42.61920000     -32.60680000     -73.06520000
H      -40.88790000     -33.05200000     -72.52670000
C      -46.05590000     -35.71260000     -71.40780000
H      -46.42300000     -34.73990000     -71.79300000
H      -46.38160000     -36.47320000     -72.10690000
S      -42.16840000     -31.58340000     -70.99220000
S      -47.04380000     -36.04370000     -69.87610000
C      -43.44200000     -31.97260000     -69.81200000
H      -43.78480000     -33.03910000     -69.87970000
H      -43.07890000     -31.86060000     -68.73930000
C      -46.42460000     -34.72190000     -68.75040000
H      -45.30650000     -34.60570000     -68.87680000
H      -46.62100000     -34.89010000     -67.71400000
C      -47.26850000     -33.42820000     -69.11560000
H      -48.31650000     -33.68420000     -68.82390000
H      -46.95910000     -32.58880000     -68.46990000
C      -44.65890000     -31.07170000     -70.03980000
H      -44.25750000     -30.00870000     -69.95380000
H      -45.25040000     -31.33020000     -69.16440000
C      -45.43380000     -31.34680000     -71.37420000
C      -45.08460000     -30.70260000     -72.51530000
C      -46.61490000     -32.18340000     -71.47490000
H      -44.23760000     -30.02840000     -72.56340000
C      -47.05350000     -32.23360000     -72.80240000
C      -47.41510000     -33.02340000     -70.57720000
C      -48.56360000     -33.42920000     -71.24590000
S      -46.26190000     -31.07210000     -73.86430000
S      -48.57190000     -33.11390000     -72.98160000
H      -49.35840000     -34.07160000     -70.73300000
