40
Properties=species:S:1:pos:R:3 #=T CELL(abcABC):=T 1.889726e+02=T 90.00000=T Traj:=T positionsangstrom=T Step:=T 0=T Bead:=T pbc="F F F"
C      -44.94700000     -34.89920000     -74.60810000
C      -45.43340000     -35.62510000     -73.47300000
C      -46.70640000     -35.43560000     -72.99750000
C      -47.62860000     -34.59100000     -73.72680000
C      -47.04210000     -33.88790000     -74.79680000
C      -45.76630000     -33.94510000     -75.25900000
H      -43.92570000     -35.03490000     -74.91140000
H      -47.03560000     -36.13780000     -72.20610000
H      -47.81390000     -33.18170000     -75.15320000
H      -45.39300000     -33.39220000     -76.05760000
C      -49.09400000     -34.44180000     -73.29180000
H      -49.69480000     -35.35620000     -73.46160000
H      -49.59220000     -33.56750000     -73.75310000
C      -44.61160000     -36.59240000     -72.74360000
H      -44.94540000     -36.72390000     -71.67100000
H      -44.60260000     -37.56610000     -73.31560000
S      -49.36870000     -34.07920000     -71.49840000
S      -42.85210000     -36.14500000     -72.55700000
C      -48.20600000     -32.63450000     -71.25970000
H      -47.95190000     -32.09290000     -72.15710000
H      -48.75780000     -31.96490000     -70.64040000
C      -42.99980000     -34.45510000     -71.80170000
H      -43.44020000     -33.82550000     -72.57530000
H      -41.96180000     -34.18780000     -71.46880000
C      -43.81060000     -34.49450000     -70.51140000
H      -44.88250000     -34.72560000     -70.69790000
H      -43.48480000     -35.40580000     -69.84730000
C      -46.91010000     -33.03460000     -70.49080000
H      -46.40570000     -33.78080000     -71.12140000
H      -47.17010000     -33.54800000     -69.47010000
C      -45.89390000     -31.91420000     -69.93270000
C      -46.24200000     -30.63000000     -69.60570000
C      -44.48580000     -32.18010000     -69.53020000
H      -47.24140000     -30.19180000     -69.61700000
C      -43.91350000     -31.03840000     -68.96690000
C      -43.53020000     -33.23310000     -69.79170000
C      -42.26290000     -32.97890000     -69.24990000
S      -45.00580000     -29.65280000     -68.85990000
S      -42.20190000     -31.30190000     -68.59730000
H      -41.36620000     -33.61100000     -69.29060000
