40
Properties=species:S:1:pos:R:3 #=T CELL(abcABC):=T 1.889726e+02=T 90.00000=T Traj:=T positionsangstrom=T Step:=T 0=T Bead:=T pbc="F F F"
C      -43.17180000     -36.35440000     -70.43590000
C      -43.95410000     -35.58500000     -71.36340000
C      -43.36390000     -34.50340000     -71.97070000
C      -42.13420000     -34.02420000     -71.39410000
C      -41.42140000     -34.75100000     -70.49680000
C      -41.85960000     -36.03920000     -70.10610000
H      -43.73310000     -37.15210000     -69.92960000
H      -43.92710000     -33.98290000     -72.70890000
H      -40.41420000     -34.38090000     -70.24180000
H      -41.26350000     -36.58450000     -69.33900000
C      -41.64270000     -32.70600000     -71.82810000
H      -41.65220000     -32.55420000     -72.84910000
H      -40.63570000     -32.39510000     -71.45380000
C      -45.33040000     -35.97260000     -71.73970000
H      -45.86470000     -35.12040000     -72.21110000
H      -45.42110000     -36.86900000     -72.37870000
S      -42.60570000     -31.17770000     -71.34890000
S      -46.40720000     -36.31020000     -70.23570000
C      -43.70000000     -31.79810000     -70.03270000
H      -43.94570000     -32.82590000     -70.28550000
H      -43.19780000     -31.81570000     -69.07510000
C      -46.13470000     -34.77370000     -69.15920000
H      -45.15790000     -34.29410000     -69.49370000
H      -46.06040000     -35.01160000     -68.12810000
C      -47.27050000     -33.77050000     -69.16410000
H      -48.19330000     -34.19640000     -68.77300000
H      -47.00870000     -32.93910000     -68.47640000
C      -45.01740000     -30.98420000     -70.00040000
H      -44.73250000     -29.93300000     -70.06400000
H      -45.65760000     -31.18500000     -69.10610000
C      -45.84040000     -31.32810000     -71.25780000
C      -45.54530000     -30.74090000     -72.43470000
C      -47.03870000     -32.25070000     -71.33790000
H      -44.75610000     -29.97210000     -72.64280000
C      -47.64370000     -32.11950000     -72.60790000
C      -47.66160000     -33.24430000     -70.49690000
C      -48.78010000     -33.80430000     -71.05350000
S      -46.62220000     -31.22290000     -73.80230000
S      -49.05190000     -33.20590000     -72.73290000
H      -49.42630000     -34.64290000     -70.67700000
