40
Properties=species:S:1:pos:R:3 #=T CELL(abcABC):=T 1.889726e+02=T 90.00000=T Traj:=T positionsangstrom=T Step:=T 0=T Bead:=T pbc="F F F"
C      -43.58350000     -36.56660000     -70.59170000
C      -44.32460000     -35.71990000     -71.44450000
C      -43.73140000     -34.51050000     -71.84770000
C      -42.44700000     -34.10540000     -71.36820000
C      -41.73630000     -34.98990000     -70.53470000
C      -42.34200000     -36.15680000     -70.07070000
H      -44.09310000     -37.42660000     -70.18770000
H      -44.12900000     -33.76990000     -72.54820000
H      -40.76870000     -34.73140000     -70.16780000
H      -41.74000000     -36.80830000     -69.42120000
C      -41.67120000     -32.94930000     -71.96370000
H      -41.67490000     -33.12120000     -73.06090000
H      -40.69110000     -33.13580000     -71.62420000
C      -45.80190000     -35.93440000     -71.72000000
H      -46.10840000     -35.26150000     -72.45900000
H      -45.95820000     -36.87110000     -72.29000000
S      -42.33860000     -31.18380000     -71.34750000
S      -46.88120000     -36.11190000     -70.21230000
C      -43.41880000     -31.61310000     -69.90770000
H      -43.54050000     -32.64900000     -69.63520000
H      -43.02000000     -31.09950000     -69.05420000
C      -46.23360000     -34.74990000     -69.23610000
H      -45.38880000     -34.48260000     -69.78630000
H      -45.83860000     -35.19860000     -68.22790000
C      -47.11910000     -33.54000000     -69.02920000
H      -48.03000000     -33.91120000     -68.52720000
H      -46.71840000     -32.71600000     -68.41150000
C      -44.82450000     -31.00770000     -69.99360000
H      -44.61920000     -29.94340000     -69.80620000
H      -45.38050000     -31.21210000     -69.01260000
C      -45.58430000     -31.33730000     -71.27900000
C      -45.21250000     -30.90810000     -72.52410000
C      -46.75570000     -32.21710000     -71.29340000
H      -44.43130000     -30.20660000     -72.71240000
C      -47.32100000     -32.22020000     -72.58540000
C      -47.53640000     -33.06290000     -70.42480000
C      -48.59260000     -33.68420000     -71.08970000
S      -46.46360000     -31.23540000     -73.76390000
S      -48.72020000     -33.15700000     -72.79450000
H      -49.29020000     -34.34220000     -70.66280000
