40
Properties=species:S:1:pos:R:3 #=T CELL(abcABC):=T 1.889726e+02=T 90.00000=T Traj:=T positionsangstrom=T Step:=T 0=T Bead:=T pbc="F F F"
C      -41.79220000     -36.36310000     -71.81430000
C      -43.19050000     -36.40100000     -71.72990000
C      -43.79910000     -36.06000000     -70.51790000
C      -43.04100000     -35.43450000     -69.46710000
C      -41.68370000     -35.24200000     -69.62010000
C      -41.13450000     -35.69120000     -70.81530000
H      -41.30820000     -36.64350000     -72.78080000
H      -44.93730000     -36.09440000     -70.44400000
H      -40.99050000     -34.73130000     -68.90870000
H      -40.06780000     -35.72390000     -70.81690000
C      -43.79440000     -34.94480000     -68.23170000
H      -43.39070000     -35.46600000     -67.39000000
H      -44.84000000     -35.13190000     -68.32010000
C      -44.03980000     -36.88220000     -72.90130000
H      -43.52910000     -37.73650000     -73.34620000
H      -45.03490000     -37.25520000     -72.45250000
S      -43.58310000     -33.17310000     -67.94190000
S      -44.45060000     -35.62270000     -74.16020000
C      -44.76500000     -32.24890000     -69.08180000
H      -45.06140000     -31.31980000     -68.56050000
H      -44.09710000     -31.98500000     -69.94610000
C      -45.62830000     -34.48000000     -73.28000000
H      -46.02280000     -34.97550000     -72.44310000
H      -46.52330000     -34.32710000     -73.97070000
C      -45.06360000     -33.15290000     -72.98640000
H      -44.44460000     -33.22110000     -72.05250000
H      -44.50870000     -32.82720000     -73.83130000
C      -46.00760000     -33.02320000     -69.54740000
H      -46.53340000     -33.34980000     -68.62090000
H      -45.81390000     -33.83790000     -70.21910000
C      -46.90800000     -32.07020000     -70.25380000
C      -47.91350000     -31.33930000     -69.60560000
C      -46.92990000     -31.78360000     -71.70940000
H      -48.05240000     -31.37470000     -68.51660000
C      -47.91460000     -30.85040000     -71.99050000
C      -46.26320000     -32.23180000     -72.92570000
C      -46.80800000     -31.64380000     -74.02740000
S      -48.82670000     -30.24500000     -70.62610000
S      -48.12480000     -30.59770000     -73.72430000
H      -46.33840000     -31.64640000     -75.05320000
