40
Properties=species:S:1:pos:R:3 #=T CELL(abcABC):=T 1.889726e+02=T 90.00000=T Traj:=T positionsangstrom=T Step:=T 0=T Bead:=T pbc="F F F"
C      -44.93200000     -34.82120000     -74.70900000
C      -45.40420000     -35.61620000     -73.64530000
C      -46.69210000     -35.40820000     -73.12040000
C      -47.51760000     -34.48590000     -73.74500000
C      -47.01530000     -33.73730000     -74.79730000
C      -45.79590000     -33.97760000     -75.36060000
H      -43.95620000     -35.06310000     -75.02070000
H      -46.97870000     -35.83370000     -72.17330000
H      -47.73890000     -33.02060000     -75.23470000
H      -45.48870000     -33.55190000     -76.31760000
C      -48.96400000     -34.17480000     -73.25330000
H      -49.53840000     -35.04720000     -73.56880000
H      -49.45000000     -33.38970000     -73.75520000
C      -44.59280000     -36.70010000     -73.05340000
H      -45.13880000     -37.34190000     -72.37270000
H      -44.43360000     -37.40710000     -73.85820000
S      -49.11370000     -33.98550000     -71.41670000
S      -42.89460000     -36.31320000     -72.40170000
C      -48.17340000     -32.50720000     -70.95530000
H      -47.98710000     -31.79130000     -71.77130000
H      -48.75550000     -31.93990000     -70.15350000
C      -43.20180000     -34.76290000     -71.58690000
H      -43.69410000     -34.09560000     -72.26920000
H      -42.27130000     -34.23340000     -71.54270000
C      -43.88570000     -34.72150000     -70.22540000
H      -44.91900000     -34.95400000     -70.20800000
H      -43.43520000     -35.45240000     -69.65860000
C      -46.83350000     -32.98480000     -70.36780000
H      -46.29790000     -33.64250000     -71.11870000
H      -47.10270000     -33.57400000     -69.58730000
C      -45.94310000     -31.88540000     -69.95430000
C      -46.30090000     -30.60950000     -69.77690000
C      -44.57950000     -32.18210000     -69.52730000
H      -47.22380000     -30.13370000     -70.02880000
C      -43.99290000     -31.08990000     -68.98130000
C      -43.67860000     -33.36290000     -69.59350000
C      -42.44690000     -32.96200000     -69.04310000
S      -44.90200000     -29.56780000     -69.16860000
S      -42.33190000     -31.32720000     -68.64210000
H      -41.63020000     -33.61350000     -69.13640000
