40
Properties=species:S:1:pos:R:3 #=T CELL(abcABC):=T 1.889726e+02=T 90.00000=T Traj:=T positionsangstrom=T Step:=T 0=T Bead:=T pbc="F F F"
C      -43.44940000     -36.41620000     -70.51580000
C      -44.14510000     -35.69000000     -71.46090000
C      -43.59510000     -34.41420000     -71.82550000
C      -42.28940000     -34.11760000     -71.37550000
C      -41.59480000     -34.92330000     -70.48810000
C      -42.16950000     -36.09470000     -70.04820000
H      -43.93000000     -37.39290000     -70.27270000
H      -44.13310000     -33.65220000     -72.42680000
H      -40.68440000     -34.52290000     -70.09970000
H      -41.64530000     -36.64880000     -69.32470000
C      -41.67530000     -32.85670000     -71.85700000
H      -41.68060000     -32.85740000     -73.00620000
H      -40.58450000     -32.81670000     -71.61400000
C      -45.56070000     -36.07680000     -71.82600000
H      -45.98520000     -35.31450000     -72.61610000
H      -45.48800000     -37.05690000     -72.14630000
S      -42.42800000     -31.25660000     -71.33020000
S      -46.63000000     -36.18560000     -70.33130000
C      -43.53830000     -31.59450000     -69.87000000
H      -43.52950000     -32.70620000     -69.86950000
H      -42.99540000     -31.28280000     -68.92240000
C      -46.05780000     -34.74350000     -69.26150000
H      -45.22880000     -34.37810000     -69.76750000
H      -45.67890000     -34.98300000     -68.22810000
C      -47.13010000     -33.58410000     -69.09740000
H      -47.97950000     -34.02270000     -68.52140000
H      -46.62660000     -32.87780000     -68.49570000
C      -45.00150000     -31.01730000     -69.98590000
H      -45.08450000     -29.94820000     -69.92970000
H      -45.53730000     -31.40280000     -69.13640000
C      -45.71910000     -31.40480000     -71.26520000
C      -45.50720000     -30.68260000     -72.42080000
C      -46.82460000     -32.35930000     -71.36740000
H      -44.62390000     -30.10660000     -72.62180000
C      -47.35730000     -32.37000000     -72.68410000
C      -47.59270000     -33.13340000     -70.45320000
C      -48.77040000     -33.57780000     -71.06270000
S      -46.56190000     -31.20730000     -73.76070000
S      -48.89520000     -33.14180000     -72.70840000
H      -49.53170000     -34.21450000     -70.66880000
