40
Properties=species:S:1:pos:R:3 #=T CELL(abcABC):=T 1.889726e+02=T 90.00000=T Traj:=T positionsangstrom=T Step:=T 0=T Bead:=T pbc="F F F"
C      -44.62960000     -35.03510000     -74.59890000
C      -45.29320000     -35.88200000     -73.73720000
C      -46.63950000     -35.60660000     -73.32950000
C      -47.26940000     -34.49430000     -73.87460000
C      -46.60400000     -33.74280000     -74.83510000
C      -45.25570000     -33.96440000     -75.21230000
H      -43.63860000     -35.29100000     -75.00140000
H      -46.98180000     -36.14720000     -72.58950000
H      -47.10160000     -32.88910000     -75.28800000
H      -44.73120000     -33.31720000     -75.92840000
C      -48.70110000     -34.17500000     -73.56450000
H      -49.43480000     -34.93550000     -73.88990000
H      -49.00000000     -33.25710000     -74.25850000
C      -44.56070000     -37.04160000     -73.15160000
H      -45.29410000     -37.90840000     -73.25180000
H      -43.68000000     -37.35570000     -73.76530000
S      -49.14590000     -33.65680000     -71.83510000
S      -44.10110000     -36.88590000     -71.38220000
C      -47.86030000     -32.38170000     -71.38310000
H      -47.65590000     -31.75070000     -72.31810000
H      -48.36350000     -31.74010000     -70.66210000
C      -43.43530000     -35.24160000     -71.13850000
H      -43.64160000     -34.60530000     -72.02770000
H      -42.33490000     -35.31560000     -71.19970000
C      -44.01790000     -34.62240000     -69.83470000
H      -45.13300000     -34.68060000     -69.88520000
H      -43.61210000     -35.22030000     -68.99980000
C      -46.65610000     -32.87390000     -70.71380000
H      -46.06410000     -33.49410000     -71.39120000
H      -46.82860000     -33.40940000     -69.77840000
C      -45.77520000     -31.74020000     -70.16050000
C      -46.11250000     -30.44440000     -70.06430000
C      -44.45470000     -31.96470000     -69.66260000
H      -46.86350000     -29.92600000     -70.62800000
C      -43.87340000     -30.86920000     -69.06840000
C      -43.68200000     -33.17330000     -69.58500000
C      -42.46120000     -32.81040000     -69.04790000
S      -44.79500000     -29.41530000     -69.38930000
S      -42.32180000     -31.18350000     -68.49160000
H      -41.79350000     -33.62150000     -68.70930000
