40
Properties=species:S:1:pos:R:3 #=T CELL(abcABC):=T 1.889726e+02=T 90.00000=T Traj:=T positionsangstrom=T Step:=T 0=T Bead:=T pbc="F F F"
C      -46.63350000     -32.79260000     -75.13010000
C      -46.02270000     -32.57650000     -73.93320000
C      -45.18170000     -33.59540000     -73.40090000
C      -45.06030000     -34.84950000     -74.08390000
C      -45.84320000     -35.13300000     -75.24480000
C      -46.59590000     -34.07930000     -75.71790000
H      -47.24720000     -31.94320000     -75.59730000
H      -44.41630000     -33.32850000     -72.73280000
H      -45.68320000     -36.08580000     -75.69530000
H      -47.15250000     -34.14880000     -76.66390000
C      -44.07640000     -35.87720000     -73.63530000
H      -43.27860000     -35.52800000     -72.89590000
H      -43.56320000     -36.44990000     -74.34050000
C      -46.17760000     -31.34760000     -73.01970000
H      -45.42850000     -31.21020000     -72.27080000
H      -46.08230000     -30.44870000     -73.63220000
S      -45.00920000     -37.09530000     -72.45440000
S      -47.81560000     -31.42320000     -72.14060000
C      -44.41250000     -36.53680000     -70.77800000
H      -44.46260000     -37.43540000     -70.19780000
H      -43.30760000     -36.19640000     -70.86680000
C      -47.88200000     -33.03680000     -71.18350000
H      -47.38440000     -33.81340000     -71.74610000
H      -48.93160000     -33.34880000     -71.24280000
C      -47.51400000     -32.77600000     -69.71790000
H      -48.28630000     -32.17780000     -69.22960000
H      -47.48640000     -33.79380000     -69.14850000
C      -45.18990000     -35.41000000     -70.01550000
H      -45.68700000     -35.80060000     -69.13050000
H      -45.91010000     -35.05170000     -70.75110000
C      -44.36800000     -34.26570000     -69.50710000
C      -43.07480000     -34.40340000     -69.05100000
C      -44.88730000     -32.86980000     -69.40320000
H      -42.48300000     -35.32720000     -68.81920000
C      -43.87080000     -32.06060000     -68.95160000
C      -46.14960000     -32.16770000     -69.45440000
C      -46.11750000     -30.84100000     -69.05130000
S      -42.39290000     -32.83920000     -68.58190000
S      -44.43190000     -30.41140000     -68.72880000
H      -46.92320000     -30.02260000     -68.98210000
