40
Properties=species:S:1:pos:R:3 #=T CELL(abcABC):=T 1.889726e+02=T 90.00000=T Traj:=T positionsangstrom=T Step:=T 0=T Bead:=T pbc="F F F"
C      -44.75350000     -35.29550000     -74.58090000
C      -45.24280000     -35.84070000     -73.38150000
C      -46.58830000     -35.59980000     -73.07990000
C      -47.34520000     -34.64790000     -73.79860000
C      -46.80750000     -34.08270000     -74.96500000
C      -45.47890000     -34.35800000     -75.30410000
H      -43.66220000     -35.48520000     -74.71640000
H      -46.96270000     -36.07790000     -72.23730000
H      -47.46620000     -33.44250000     -75.63380000
H      -44.99870000     -33.95770000     -76.19740000
C      -48.79380000     -34.50410000     -73.42670000
H      -49.21570000     -35.43900000     -73.10320000
H      -49.43880000     -34.15990000     -74.28010000
C      -44.48250000     -36.93650000     -72.69950000
H      -44.78660000     -37.88630000     -73.05110000
H      -43.41910000     -36.94980000     -72.94550000
S      -49.02550000     -33.54980000     -71.86850000
S      -44.62240000     -36.89340000     -70.92160000
C      -47.79910000     -32.16670000     -71.78610000
H      -47.62640000     -31.83310000     -72.81600000
H      -48.28770000     -31.30360000     -71.29370000
C      -44.01030000     -35.17550000     -70.69070000
H      -44.34060000     -34.49810000     -71.41620000
H      -42.92580000     -35.28160000     -70.82850000
C      -44.28330000     -34.56080000     -69.26200000
H      -45.33420000     -34.47060000     -68.95920000
H      -43.76020000     -35.17390000     -68.50510000
C      -46.53910000     -32.64250000     -70.98890000
H      -46.05490000     -33.30580000     -71.71690000
H      -46.96710000     -33.23500000     -70.17400000
C      -45.61240000     -31.63010000     -70.43370000
C      -45.74520000     -30.24660000     -70.54820000
C      -44.47960000     -31.96270000     -69.61030000
H      -46.67420000     -29.77350000     -70.99270000
C      -43.72860000     -30.82320000     -69.31350000
C      -43.73630000     -33.17020000     -69.11530000
C      -42.45780000     -32.88330000     -68.80100000
S      -44.39220000     -29.35630000     -70.00790000
S      -42.05200000     -31.13820000     -68.81380000
H      -41.69720000     -33.55300000     -68.38860000
