40
Properties=species:S:1:pos:R:3 #=T CELL(abcABC):=T 1.889726e+02=T 90.00000=T Traj:=T positionsangstrom=T Step:=T 0=T Bead:=T pbc="F F F"
C      -44.81600000     -35.17960000     -74.80550000
C      -45.45290000     -35.76990000     -73.71920000
C      -46.73010000     -35.39770000     -73.34830000
C      -47.40610000     -34.46210000     -74.16660000
C      -46.76240000     -33.88890000     -75.30800000
C      -45.46350000     -34.27260000     -75.61370000
H      -43.82020000     -35.55580000     -74.89230000
H      -47.20550000     -35.93220000     -72.41340000
H      -47.28940000     -33.16250000     -75.88330000
H      -44.88650000     -33.81400000     -76.42360000
C      -48.85230000     -34.00180000     -73.73940000
H      -49.65930000     -34.71230000     -73.96740000
H      -49.11790000     -32.94980000     -74.11160000
C      -44.71900000     -36.89480000     -72.98820000
H      -45.27580000     -37.77690000     -73.21890000
H      -43.72330000     -36.85640000     -73.45370000
S      -48.88610000     -33.99580000     -71.84040000
S      -44.53870000     -36.61880000     -71.09430000
C      -47.57890000     -32.68240000     -71.49370000
H      -46.88340000     -32.71030000     -72.32310000
H      -48.12910000     -31.72690000     -71.54970000
C      -43.97310000     -34.82810000     -70.92870000
H      -44.72040000     -34.22530000     -71.56300000
H      -42.94290000     -34.77530000     -71.38920000
C      -44.04660000     -34.58960000     -69.36910000
H      -45.02740000     -34.92120000     -68.91490000
H      -43.35110000     -35.30830000     -68.87590000
C      -46.80340000     -32.84410000     -70.21410000
H      -46.45900000     -33.86540000     -70.06070000
H      -47.53910000     -32.78390000     -69.42490000
C      -45.66100000     -31.81550000     -70.15560000
C      -45.77230000     -30.52810000     -70.59110000
C      -44.35060000     -32.01070000     -69.49300000
H      -46.45070000     -30.08290000     -71.24040000
C      -43.63370000     -30.80950000     -69.26730000
C      -43.66650000     -33.17940000     -68.99250000
C      -42.43450000     -32.83600000     -68.39360000
S      -44.37480000     -29.51520000     -70.09600000
S      -42.18290000     -31.04580000     -68.27470000
H      -41.78180000     -33.48670000     -67.74700000
