40
Properties=species:S:1:pos:R:3 #=T CELL(abcABC):=T 1.889726e+02=T 90.00000=T Traj:=T positionsangstrom=T Step:=T 0=T Bead:=T pbc="F F F"
C      -41.97790000     -36.18370000     -71.95050000
C      -43.30600000     -36.34570000     -71.79690000
C      -43.96300000     -35.87030000     -70.60720000
C      -43.21880000     -35.30550000     -69.56200000
C      -41.77520000     -35.22590000     -69.71910000
C      -41.16960000     -35.71650000     -70.85190000
H      -41.46530000     -36.58010000     -72.78950000
H      -45.07740000     -35.92130000     -70.51040000
H      -41.10610000     -34.88110000     -69.00490000
H      -40.07310000     -35.56950000     -70.99020000
C      -43.85730000     -34.94090000     -68.25080000
H      -43.24870000     -35.46350000     -67.42880000
H      -44.88120000     -35.24360000     -68.08710000
C      -44.15880000     -36.99610000     -72.86100000
H      -43.57660000     -37.85250000     -73.30080000
H      -45.04970000     -37.35670000     -72.50880000
S      -43.79220000     -33.14790000     -67.77470000
S      -44.34950000     -35.62990000     -74.14530000
C      -44.57980000     -32.25860000     -69.13210000
H      -44.77870000     -31.23760000     -68.85400000
H      -44.00330000     -32.16550000     -69.97470000
C      -45.62840000     -34.60600000     -73.39230000
H      -46.12490000     -35.27910000     -72.66870000
H      -46.33130000     -34.39960000     -74.20790000
C      -45.05750000     -33.29560000     -72.79630000
H      -44.61760000     -33.44500000     -71.79850000
H      -44.24530000     -33.01440000     -73.48330000
C      -45.94400000     -32.89880000     -69.43660000
H      -46.43370000     -32.98350000     -68.46590000
H      -45.77190000     -33.83820000     -69.99510000
C      -46.89200000     -32.04920000     -70.23320000
C      -47.91660000     -31.34490000     -69.60570000
C      -46.91100000     -31.82820000     -71.66710000
H      -48.08010000     -31.31280000     -68.50050000
C      -47.85650000     -30.91020000     -72.02880000
C      -46.14570000     -32.23520000     -72.80220000
C      -46.49960000     -31.60290000     -73.99200000
S      -48.88810000     -30.40280000     -70.72180000
S      -47.89630000     -30.51960000     -73.74390000
H      -46.35780000     -31.85830000     -75.08260000
