40
Properties=species:S:1:pos:R:3 #=T CELL(abcABC):=T 1.889726e+02=T 90.00000=T Traj:=T positionsangstrom=T Step:=T 0=T Bead:=T pbc="F F F"
C      -46.63800000     -32.96810000     -74.97350000
C      -45.83240000     -32.64900000     -73.84720000
C      -44.92520000     -33.60350000     -73.33940000
C      -44.85590000     -34.87570000     -73.82130000
C      -45.70630000     -35.23060000     -74.85740000
C      -46.54700000     -34.26570000     -75.45400000
H      -47.25360000     -32.24140000     -75.42990000
H      -44.28600000     -33.40860000     -72.50070000
H      -45.80320000     -36.22040000     -75.29130000
H      -47.19330000     -34.64740000     -76.24030000
C      -43.87240000     -35.83260000     -73.16000000
H      -43.26720000     -35.32190000     -72.43730000
H      -43.23160000     -36.22470000     -74.04250000
C      -45.93470000     -31.30510000     -73.17900000
H      -45.13460000     -31.19330000     -72.37550000
H      -45.93190000     -30.42460000     -73.83930000
S      -44.78890000     -37.17350000     -72.35750000
S      -47.62810000     -31.06150000     -72.39120000
C      -44.80410000     -36.72160000     -70.54390000
H      -45.45400000     -37.46480000     -70.00310000
H      -43.68610000     -36.78110000     -70.34530000
C      -48.00010000     -32.66170000     -71.49810000
H      -47.39910000     -33.37820000     -71.97190000
H      -49.06640000     -32.90030000     -71.62090000
C      -47.68200000     -32.77540000     -69.96060000
H      -48.48710000     -32.25210000     -69.39400000
H      -47.76120000     -33.80210000     -69.57030000
C      -45.44570000     -35.34830000     -70.12920000
H      -46.18490000     -35.47980000     -69.31440000
H      -46.13560000     -34.95580000     -70.89730000
C      -44.49320000     -34.26500000     -69.59920000
C      -43.21240000     -34.41050000     -69.18530000
C      -44.96780000     -32.90570000     -69.45950000
H      -42.64010000     -35.27950000     -69.31560000
C      -43.92580000     -32.08750000     -69.01150000
C      -46.32120000     -32.20330000     -69.60030000
C      -46.17600000     -30.89980000     -69.28260000
S      -42.48640000     -32.94090000     -68.54200000
S      -44.57300000     -30.45010000     -68.75530000
H      -46.93780000     -30.04030000     -69.38500000
