40
Properties=species:S:1:pos:R:3 #=T CELL(abcABC):=T 1.889726e+02=T 90.00000=T Traj:=T positionsangstrom=T Step:=T 0=T Bead:=T pbc="F F F"
C      -46.01700000     -35.08490000     -74.44260000
C      -45.26000000     -33.91920000     -74.58890000
C      -45.94920000     -32.67820000     -74.66290000
C      -47.29940000     -32.63840000     -74.22440000
C      -48.06350000     -33.85050000     -74.17960000
C      -47.40990000     -35.05800000     -74.31920000
H      -45.48660000     -36.02900000     -74.52200000
H      -45.42530000     -31.69290000     -74.86280000
H      -49.13100000     -33.81670000     -73.93350000
H      -47.86420000     -36.08030000     -74.57020000
C      -48.04060000     -31.33300000     -74.04410000
H      -49.02480000     -31.39020000     -73.67730000
H      -48.02720000     -30.73930000     -74.96290000
C      -43.75350000     -33.92510000     -74.83910000
H      -43.40390000     -34.32490000     -75.81580000
H      -43.46300000     -32.84880000     -74.73290000
S      -47.16510000     -30.23110000     -72.82650000
S      -42.87870000     -34.98850000     -73.62790000
C      -47.15470000     -31.34630000     -71.24200000
H      -47.32620000     -30.59580000     -70.45970000
H      -47.88980000     -32.07920000     -71.33800000
C      -43.60120000     -34.78340000     -71.92060000
H      -43.35910000     -35.64860000     -71.33650000
H      -44.71430000     -34.64470000     -72.02950000
C      -42.99390000     -33.66660000     -71.04750000
H      -41.93620000     -33.68350000     -71.20720000
H      -43.24090000     -32.69530000     -71.43280000
C      -45.78450000     -32.01000000     -70.93500000
H      -44.97100000     -31.21980000     -70.98980000
H      -45.63870000     -32.74350000     -71.68330000
C      -45.71930000     -32.71050000     -69.50270000
C      -46.76850000     -32.74660000     -68.59750000
C      -44.58580000     -33.37880000     -69.03740000
H      -47.68890000     -32.07960000     -68.71200000
C      -44.77180000     -33.86280000     -67.74100000
C      -43.35680000     -33.84140000     -69.61110000
C      -42.52870000     -34.39300000     -68.64230000
S      -46.36220000     -33.58560000     -67.07810000
S      -43.35490000     -34.70630000     -67.16060000
H      -41.57260000     -34.78900000     -68.86540000
