40
Properties=species:S:1:pos:R:3 #=T CELL(abcABC):=T 1.889726e+02=T 90.00000=T Traj:=T positionsangstrom=T Step:=T 0=T Bead:=T pbc="F F F"
C      -44.60980000     -35.39690000     -73.56500000
C      -45.64720000     -36.11850000     -72.98580000
C      -46.95480000     -35.71360000     -73.25390000
C      -47.18010000     -34.53760000     -73.98190000
C      -46.15170000     -33.79590000     -74.62310000
C      -44.83340000     -34.27050000     -74.41070000
H      -43.62430000     -35.74260000     -73.36260000
H      -47.77560000     -36.31390000     -73.05380000
H      -46.35890000     -32.80190000     -75.17000000
H      -43.94490000     -33.81510000     -74.92150000
C      -48.70870000     -34.06570000     -73.83190000
H      -49.42700000     -34.84810000     -74.12760000
H      -48.81800000     -33.23240000     -74.58920000
C      -45.36800000     -37.38230000     -72.16720000
H      -46.34630000     -37.72390000     -71.87390000
H      -44.80290000     -38.08930000     -72.75480000
S      -49.19790000     -33.40930000     -72.25950000
S      -44.25210000     -36.97780000     -70.70060000
C      -47.85920000     -32.16550000     -71.87790000
H      -47.70880000     -31.61060000     -72.77930000
H      -48.33240000     -31.45120000     -71.18670000
C      -43.89600000     -35.18630000     -70.50960000
H      -44.22250000     -34.72560000     -71.43380000
H      -42.85190000     -35.01880000     -70.45310000
C      -44.50260000     -34.52450000     -69.27940000
H      -45.56350000     -34.57120000     -69.32160000
H      -44.19100000     -35.04870000     -68.36220000
C      -46.55310000     -32.68710000     -71.20580000
H      -45.95140000     -33.42070000     -71.76530000
H      -46.86500000     -33.16900000     -70.25400000
C      -45.59070000     -31.64770000     -70.72670000
C      -45.68740000     -30.30810000     -70.93950000
C      -44.34490000     -31.92660000     -69.93530000
H      -46.31210000     -29.75410000     -71.66350000
C      -43.55230000     -30.84530000     -69.72260000
C      -43.96130000     -33.06720000     -69.12560000
C      -42.77690000     -32.84250000     -68.49070000
S      -44.28290000     -29.38670000     -70.45360000
S      -42.19590000     -31.21400000     -68.70200000
H      -42.21350000     -33.43280000     -67.89710000
