40
Properties=species:S:1:pos:R:3 #=T CELL(abcABC):=T 1.889726e+02=T 90.00000=T Traj:=T positionsangstrom=T Step:=T 0=T Bead:=T pbc="F F F"
C      -44.64340000     -35.45410000     -73.80270000
C      -45.63700000     -36.24240000     -73.14000000
C      -46.96320000     -35.76240000     -73.15230000
C      -47.30900000     -34.61010000     -73.84140000
C      -46.35830000     -33.79440000     -74.40160000
C      -45.01100000     -34.20520000     -74.33880000
H      -43.57830000     -35.76500000     -73.81830000
H      -47.79630000     -36.20760000     -72.63430000
H      -46.65160000     -32.88610000     -74.89840000
H      -44.26070000     -33.58220000     -74.78220000
C      -48.72070000     -34.20000000     -73.85480000
H      -49.33580000     -35.03900000     -73.98050000
H      -49.05990000     -33.47290000     -74.59630000
C      -45.11910000     -37.43070000     -72.37020000
H      -45.75740000     -38.28370000     -72.23880000
H      -44.24790000     -37.77170000     -73.03720000
S      -49.12850000     -33.35850000     -72.14610000
S      -44.29140000     -37.08540000     -70.63910000
C      -47.81120000     -32.04610000     -71.93620000
H      -47.54990000     -31.70700000     -72.94430000
H      -48.25160000     -31.19450000     -71.42400000
C      -43.58140000     -35.30140000     -70.70830000
H      -43.87630000     -34.71290000     -71.54490000
H      -42.42830000     -35.35540000     -70.61590000
C      -44.25910000     -34.58710000     -69.55050000
H      -45.35880000     -34.68980000     -69.66470000
H      -44.05440000     -35.07120000     -68.61520000
C      -46.55030000     -32.60190000     -71.20170000
H      -46.17830000     -33.43120000     -71.75550000
H      -46.93020000     -33.02150000     -70.25440000
C      -45.49590000     -31.63380000     -70.83550000
C      -45.67790000     -30.29980000     -71.05610000
C      -44.46010000     -31.89780000     -69.83010000
H      -46.43500000     -29.74610000     -71.62000000
C      -43.74720000     -30.75100000     -69.54820000
C      -43.77450000     -33.14270000     -69.39510000
C      -42.62410000     -32.85360000     -68.73170000
S      -44.42540000     -29.29150000     -70.24580000
S      -42.29810000     -31.10900000     -68.63180000
H      -41.91480000     -33.42930000     -68.28550000
