40
Properties=species:S:1:pos:R:3 #=T CELL(abcABC):=T 1.889726e+02=T 90.00000=T Traj:=T positionsangstrom=T Step:=T 0=T Bead:=T pbc="F F F"
C      -47.46960000     -32.41280000     -74.13040000
C      -46.42860000     -32.53760000     -73.16380000
C      -45.63100000     -33.67710000     -73.15390000
C      -45.74150000     -34.70870000     -74.16160000
C      -46.76230000     -34.54280000     -75.09810000
C      -47.52110000     -33.31090000     -75.18230000
H      -47.98460000     -31.43810000     -74.23400000
H      -44.90600000     -33.86060000     -72.35280000
H      -46.92080000     -35.28570000     -75.94870000
H      -48.23470000     -33.16440000     -75.92550000
C      -44.92840000     -35.94880000     -74.20810000
H      -43.86690000     -35.76110000     -74.27560000
H      -45.25840000     -36.56460000     -75.06280000
C      -46.35440000     -31.58890000     -71.98730000
H      -45.45050000     -31.81020000     -71.39800000
H      -46.14600000     -30.50520000     -72.15250000
S      -45.30170000     -37.06630000     -72.71790000
S      -47.73770000     -31.41140000     -70.67260000
C      -44.03070000     -36.57190000     -71.45650000
H      -43.81570000     -37.50030000     -70.93520000
H      -43.06850000     -36.28940000     -71.79080000
C      -47.96270000     -33.17470000     -69.98580000
H      -47.85890000     -33.80540000     -70.86490000
H      -49.04610000     -33.17990000     -69.54140000
C      -46.96680000     -33.52680000     -68.91360000
H      -47.39610000     -33.43400000     -67.92290000
H      -46.71800000     -34.58590000     -69.03900000
C      -44.71230000     -35.53670000     -70.40170000
H      -44.55120000     -35.98860000     -69.40000000
H      -45.75540000     -35.42110000     -70.54270000
C      -43.94880000     -34.25210000     -70.36920000
C      -42.70560000     -34.00650000     -70.96850000
C      -44.45040000     -33.07380000     -69.63020000
H      -42.09720000     -34.67220000     -71.59670000
C      -43.46170000     -32.04820000     -69.58930000
C      -45.66720000     -32.76180000     -68.87860000
C      -45.57900000     -31.49510000     -68.30310000
S      -42.10870000     -32.35260000     -70.60120000
S      -43.97400000     -30.66560000     -68.65160000
H      -46.35470000     -30.90490000     -67.71650000
