40
Properties=species:S:1:pos:R:3 #=T CELL(abcABC):=T 1.889726e+02=T 90.00000=T Traj:=T positionsangstrom=T Step:=T 0=T Bead:=T pbc="F F F"
C      -44.18510000     -35.34230000     -73.44900000
C      -45.15210000     -36.24440000     -72.85140000
C      -46.57000000     -35.99790000     -73.13300000
C      -46.95810000     -34.93930000     -73.98340000
C      -45.98320000     -34.12590000     -74.53240000
C      -44.65650000     -34.33670000     -74.30910000
H      -43.12170000     -35.39870000     -73.11560000
H      -47.43100000     -36.66120000     -72.64850000
H      -46.41500000     -33.41510000     -75.17260000
H      -43.95670000     -33.67280000     -74.81740000
C      -48.39620000     -34.60300000     -74.09620000
H      -48.99490000     -35.48080000     -74.23580000
H      -48.58520000     -33.92420000     -74.94940000
C      -44.79630000     -37.25420000     -71.81660000
H      -45.18210000     -38.24310000     -71.92730000
H      -43.73480000     -37.34310000     -71.87500000
S      -48.88530000     -33.55550000     -72.62890000
S      -45.39750000     -36.64870000     -70.15360000
C      -47.54870000     -32.26080000     -72.39010000
H      -47.04110000     -32.23280000     -73.38240000
H      -47.95230000     -31.26110000     -72.23480000
C      -44.22540000     -35.30680000     -69.96440000
H      -44.09870000     -34.75640000     -70.90610000
H      -43.22690000     -35.57820000     -69.71990000
C      -44.82580000     -34.35630000     -68.92650000
H      -45.89550000     -34.06200000     -69.13130000
H      -44.81860000     -34.87760000     -67.94620000
C      -46.55010000     -32.65000000     -71.34020000
H      -46.05090000     -33.49550000     -71.74390000
H      -47.03910000     -33.08400000     -70.47840000
C      -45.59750000     -31.54350000     -70.83370000
C      -45.43650000     -30.33590000     -71.56860000
C      -44.60240000     -31.80910000     -69.82640000
H      -46.01890000     -29.89730000     -72.43390000
C      -43.75920000     -30.67210000     -69.74250000
C      -44.18480000     -32.97910000     -68.91140000
C      -42.98100000     -32.59700000     -68.29670000
S      -44.02640000     -29.42830000     -70.89850000
S      -42.38470000     -30.96810000     -68.70280000
H      -42.49010000     -33.30330000     -67.59840000
