40
Properties=species:S:1:pos:R:3 #=T CELL(abcABC):=T 1.889726e+02=T 90.00000=T Traj:=T positionsangstrom=T Step:=T 0=T Bead:=T pbc="F F F"
C      -44.13460000     -36.30080000     -73.52540000
C      -45.13650000     -36.59010000     -72.62530000
C      -46.38150000     -36.06570000     -72.88120000
C      -46.60910000     -35.19010000     -73.89690000
C      -45.52320000     -34.84590000     -74.79710000
C      -44.25210000     -35.34270000     -74.59570000
H      -43.17080000     -36.83210000     -73.37610000
H      -47.14240000     -36.27860000     -72.14200000
H      -45.67950000     -34.25790000     -75.65660000
H      -43.38860000     -35.12060000     -75.16610000
C      -47.98240000     -34.60080000     -74.23490000
H      -48.63570000     -35.34570000     -74.53550000
H      -47.87480000     -33.92010000     -75.04660000
C      -44.95710000     -37.49010000     -71.41510000
H      -45.59930000     -38.33080000     -71.49710000
H      -44.01210000     -37.96570000     -71.20860000
S      -48.74900000     -33.74200000     -72.78770000
S      -45.42290000     -36.56300000     -69.80780000
C      -47.57450000     -32.39170000     -72.31190000
H      -47.33630000     -32.00620000     -73.29300000
H      -48.07970000     -31.62160000     -71.80780000
C      -44.14590000     -35.12850000     -69.98530000
H      -44.15680000     -34.80250000     -71.00890000
H      -43.07570000     -35.46390000     -69.85870000
C      -44.52770000     -34.08200000     -68.91070000
H      -45.68610000     -34.10800000     -68.87050000
H      -44.13780000     -34.47360000     -68.00600000
C      -46.28320000     -32.74440000     -71.56210000
H      -45.67420000     -33.46310000     -72.10950000
H      -46.47160000     -33.23660000     -70.55980000
C      -45.54510000     -31.52840000     -71.11650000
C      -45.60680000     -30.24690000     -71.68480000
C      -44.56440000     -31.55810000     -70.09430000
H      -46.13390000     -29.98820000     -72.52590000
C      -43.98380000     -30.30310000     -69.80860000
C      -43.99270000     -32.64100000     -69.14560000
C      -43.06120000     -32.13830000     -68.31870000
S      -44.62700000     -29.10520000     -70.81870000
S      -42.80080000     -30.40150000     -68.62090000
H      -42.56470000     -32.71820000     -67.56020000
