40
Properties=species:S:1:pos:R:3 #=T CELL(abcABC):=T 1.889726e+02=T 90.00000=T Traj:=T positionsangstrom=T Step:=T 0=T Bead:=T pbc="F F F"
C      -43.98220000     -36.08870000     -73.41320000
C      -45.00290000     -36.45950000     -72.57680000
C      -46.36140000     -36.01410000     -72.83110000
C      -46.64170000     -35.27360000     -74.00740000
C      -45.61630000     -35.02190000     -74.90080000
C      -44.30650000     -35.47840000     -74.62820000
H      -43.03740000     -36.43620000     -73.15770000
H      -47.19870000     -36.31200000     -72.20470000
H      -45.98160000     -34.59880000     -75.86530000
H      -43.58130000     -35.51470000     -75.46600000
C      -48.11990000     -34.92440000     -74.16360000
H      -48.65900000     -35.89270000     -74.04390000
H      -48.20650000     -34.51530000     -75.11970000
C      -44.73490000     -37.34330000     -71.41600000
H      -45.37510000     -38.27140000     -71.43000000
H      -43.72520000     -37.65420000     -71.55560000
S      -48.68860000     -33.77980000     -72.87020000
S      -45.06170000     -36.59880000     -69.78790000
C      -47.51830000     -32.39100000     -72.68670000
H      -47.24640000     -31.92590000     -73.60450000
H      -48.15240000     -31.65810000     -72.18160000
C      -44.17450000     -34.98990000     -69.98530000
H      -44.43560000     -34.39940000     -70.85940000
H      -43.09780000     -35.15490000     -69.77480000
C      -44.76540000     -34.00330000     -68.92780000
H      -45.80130000     -34.15900000     -68.95380000
H      -44.42770000     -34.47970000     -67.94400000
C      -46.20640000     -32.69420000     -71.81990000
H      -45.50560000     -33.22640000     -72.51050000
H      -46.36470000     -33.42420000     -71.02960000
C      -45.60330000     -31.48090000     -71.15830000
C      -45.66230000     -30.18760000     -71.69400000
C      -44.70840000     -31.53830000     -70.00470000
H      -46.28030000     -29.91020000     -72.57350000
C      -44.03910000     -30.35400000     -69.78550000
C      -44.24320000     -32.54570000     -68.99760000
C      -43.38220000     -32.09440000     -68.06530000
S      -44.56170000     -29.09240000     -70.83640000
S      -42.95130000     -30.44790000     -68.44110000
H      -42.82850000     -32.62660000     -67.30240000
