40
Properties=species:S:1:pos:R:3 #=T CELL(abcABC):=T 1.889726e+02=T 90.00000=T Traj:=T positionsangstrom=T Step:=T 0=T Bead:=T pbc="F F F"
C      -44.10700000     -36.26140000     -73.44270000
C      -45.23960000     -36.59860000     -72.67060000
C      -46.38820000     -35.92230000     -72.96590000
C      -46.60940000     -35.11840000     -74.01210000
C      -45.50890000     -34.91070000     -74.86530000
C      -44.24300000     -35.44870000     -74.56550000
H      -43.12880000     -36.69020000     -73.16420000
H      -47.23310000     -36.11470000     -72.31110000
H      -45.48100000     -34.21860000     -75.67980000
H      -43.38090000     -35.19810000     -75.20600000
C      -47.92430000     -34.37720000     -74.23750000
H      -48.62840000     -35.02950000     -74.81010000
H      -47.61540000     -33.43310000     -74.90660000
C      -44.98900000     -37.40200000     -71.46240000
H      -45.81820000     -38.18070000     -71.51970000
H      -43.94820000     -37.83770000     -71.47100000
S      -48.85720000     -33.81340000     -72.74370000
S      -45.20620000     -36.51420000     -69.85910000
C      -47.80910000     -32.34730000     -72.13800000
H      -47.69960000     -31.74650000     -73.06410000
H      -48.32330000     -31.64830000     -71.43930000
C      -44.28970000     -34.97600000     -70.19330000
H      -44.64040000     -34.51310000     -71.08870000
H      -43.18720000     -35.15670000     -70.17720000
C      -44.48200000     -34.11330000     -68.94680000
H      -45.47870000     -33.86450000     -68.76540000
H      -44.08260000     -34.57710000     -68.06340000
C      -46.46170000     -32.67270000     -71.49550000
H      -45.81580000     -33.21180000     -72.16970000
H      -46.68390000     -33.35090000     -70.58740000
C      -45.65100000     -31.59110000     -70.96940000
C      -45.72120000     -30.33040000     -71.47970000
C      -44.53010000     -31.69420000     -70.02700000
H      -46.35900000     -30.13550000     -72.35040000
C      -43.88980000     -30.52200000     -69.90450000
C      -44.02210000     -32.63850000     -69.04500000
C      -43.07300000     -32.08250000     -68.29110000
S      -44.48370000     -29.26070000     -70.93310000
S      -42.75900000     -30.36970000     -68.57300000
H      -42.58740000     -32.52840000     -67.45750000
