40
Properties=species:S:1:pos:R:3 #=T CELL(abcABC):=T 1.889726e+02=T 90.00000=T Traj:=T positionsangstrom=T Step:=T 0=T Bead:=T pbc="F F F"
C      -45.87300000     -35.11570000     -74.44360000
C      -45.17430000     -33.86440000     -74.58940000
C      -45.94350000     -32.70880000     -74.52190000
C      -47.31370000     -32.70310000     -74.25300000
C      -48.01910000     -33.90530000     -74.21580000
C      -47.25390000     -35.08900000     -74.29600000
H      -45.36910000     -36.11610000     -74.48300000
H      -45.36920000     -31.71690000     -74.58400000
H      -49.15230000     -33.85260000     -74.06760000
H      -47.80920000     -35.98790000     -74.09480000
C      -47.96290000     -31.37280000     -74.03330000
H      -49.01880000     -31.65550000     -73.82080000
H      -47.93820000     -30.88780000     -75.06980000
C      -43.70570000     -33.85810000     -74.80930000
H      -43.47680000     -34.32950000     -75.81410000
H      -43.35230000     -32.90520000     -74.95360000
S      -47.11310000     -30.40800000     -72.77580000
S      -42.59360000     -34.82250000     -73.60100000
C      -47.29100000     -31.41550000     -71.25340000
H      -47.53560000     -30.77600000     -70.40210000
H      -48.19610000     -32.08780000     -71.26190000
C      -43.43500000     -34.74790000     -71.99640000
H      -43.36150000     -35.80760000     -71.61020000
H      -44.45270000     -34.56960000     -72.23880000
C      -42.93110000     -33.69850000     -71.01650000
H      -41.83710000     -33.76380000     -71.00740000
H      -43.33950000     -32.66210000     -71.26550000
C      -46.00630000     -32.15470000     -70.99710000
H      -45.14130000     -31.52260000     -71.18330000
H      -45.95200000     -32.93690000     -71.77450000
C      -45.90110000     -32.81420000     -69.61510000
C      -46.83860000     -32.65890000     -68.62540000
C      -44.73940000     -33.50560000     -69.12370000
H      -47.87240000     -32.16570000     -68.84680000
C      -44.89880000     -33.85380000     -67.75430000
C      -43.42950000     -33.94640000     -69.63910000
C      -42.68640000     -34.59880000     -68.68360000
S      -46.37570000     -33.30240000     -67.09650000
S      -43.52730000     -34.63550000     -67.10300000
H      -41.69410000     -34.92350000     -68.92240000
