40
Properties=species:S:1:pos:R:3 #=T CELL(abcABC):=T 1.889726e+02=T 90.00000=T Traj:=T positionsangstrom=T Step:=T 0=T Bead:=T pbc="F F F"
C      -43.67030000     -35.92670000     -73.10130000
C      -44.79350000     -36.45750000     -72.49140000
C      -46.06910000     -36.00490000     -72.91670000
C      -46.23620000     -34.93640000     -73.80400000
C      -45.07020000     -34.39090000     -74.35690000
C      -43.81100000     -34.87580000     -74.01030000
H      -42.72390000     -36.26810000     -72.74660000
H      -46.86080000     -36.46070000     -72.52380000
H      -45.19340000     -33.59040000     -75.09550000
H      -42.93850000     -34.35960000     -74.48760000
C      -47.59520000     -34.57080000     -74.30920000
H      -48.05250000     -35.48170000     -74.85340000
H      -47.48630000     -33.73950000     -74.95790000
C      -44.78540000     -37.42280000     -71.30660000
H      -45.59250000     -38.19860000     -71.32420000
H      -43.83050000     -37.89180000     -71.28850000
S      -48.73520000     -34.24130000     -72.81150000
S      -45.05280000     -36.59860000     -69.70410000
C      -48.21960000     -32.62880000     -71.99540000
H      -48.24320000     -31.82910000     -72.78890000
H      -49.09210000     -32.50360000     -71.26430000
C      -44.08030000     -34.95010000     -69.96010000
H      -44.29670000     -34.60790000     -70.96560000
H      -43.04830000     -35.26510000     -69.94740000
C      -44.65590000     -34.01320000     -68.89550000
H      -45.72860000     -34.07550000     -68.95820000
H      -44.22430000     -34.34890000     -67.98100000
C      -46.85410000     -32.79260000     -71.20610000
H      -46.31930000     -33.58900000     -71.81830000
H      -47.01550000     -33.31770000     -70.28580000
C      -45.96890000     -31.58170000     -71.04370000
C      -46.08450000     -30.43520000     -71.76220000
C      -44.88890000     -31.62910000     -70.10360000
H      -46.79640000     -30.26210000     -72.51800000
C      -44.18760000     -30.39830000     -70.09170000
C      -44.26380000     -32.58830000     -69.20500000
C      -43.16290000     -32.01040000     -68.61640000
S      -44.90080000     -29.28340000     -71.25410000
S      -42.82540000     -30.32840000     -68.99240000
H      -42.48360000     -32.55010000     -67.95260000
