40
Properties=species:S:1:pos:R:3 #=T CELL(abcABC):=T 1.889726e+02=T 90.00000=T Traj:=T positionsangstrom=T Step:=T 0=T Bead:=T pbc="F F F"
C      -42.09130000     -35.78790000     -71.94620000
C      -43.45270000     -36.16210000     -71.60120000
C      -43.84050000     -36.07620000     -70.27990000
C      -43.04580000     -35.35610000     -69.33990000
C      -41.71400000     -35.11970000     -69.67200000
C      -41.23980000     -35.36130000     -70.94850000
H      -41.73850000     -35.93690000     -73.00470000
H      -44.84490000     -36.42020000     -70.01710000
H      -40.92560000     -34.79990000     -68.90380000
H      -40.28350000     -35.02510000     -71.28530000
C      -43.59110000     -34.95090000     -68.02350000
H      -42.87670000     -35.23960000     -67.21230000
H      -44.56980000     -35.49660000     -67.84640000
C      -44.38530000     -36.62520000     -72.68890000
H      -44.16530000     -37.64560000     -73.03400000
H      -45.47120000     -36.75610000     -72.26600000
S      -43.87320000     -33.15210000     -67.79260000
S      -44.38500000     -35.71740000     -74.32780000
C      -44.83340000     -32.75770000     -69.32590000
H      -44.72850000     -31.71380000     -69.29300000
H      -44.18360000     -33.06330000     -70.11060000
C      -45.74720000     -34.57410000     -73.83730000
H      -46.57390000     -35.16110000     -73.45850000
H      -46.07970000     -34.01920000     -74.78220000
C      -45.19090000     -33.56800000     -72.81790000
H      -45.14310000     -33.95840000     -71.77500000
H      -44.11550000     -33.41880000     -73.04130000
C      -46.26510000     -33.29970000     -69.53840000
H      -46.73130000     -33.45010000     -68.51410000
H      -46.24440000     -34.32250000     -70.00390000
C      -47.09870000     -32.30230000     -70.32090000
C      -48.17620000     -31.62030000     -69.72480000
C      -46.92130000     -31.93160000     -71.68870000
H      -48.40580000     -31.69280000     -68.69640000
C      -47.76470000     -30.85090000     -72.03600000
C      -46.03010000     -32.27660000     -72.77430000
C      -46.28070000     -31.51510000     -73.93180000
S      -48.88630000     -30.36460000     -70.75490000
S      -47.43350000     -30.23760000     -73.57380000
H      -45.55080000     -31.33940000     -74.64930000
