40
Properties=species:S:1:pos:R:3 #=T CELL(abcABC):=T 1.889726e+02=T 90.00000=T Traj:=T positionsangstrom=T Step:=T 0=T Bead:=T pbc="F F F"
C      -43.89280000     -36.22540000     -73.73440000
C      -44.73930000     -36.44440000     -72.64170000
C      -46.01920000     -35.91530000     -72.64170000
C      -46.56690000     -35.29790000     -73.82200000
C      -45.64450000     -34.86820000     -74.83410000
C      -44.35960000     -35.42070000     -74.79130000
H      -42.90600000     -36.80770000     -73.79020000
H      -46.72180000     -36.14600000     -71.86420000
H      -46.07030000     -34.33960000     -75.71610000
H      -43.72810000     -35.12380000     -75.61990000
C      -48.02740000     -34.93610000     -73.91180000
H      -48.59990000     -35.85620000     -73.77630000
H      -48.25010000     -34.65810000     -75.03220000
C      -44.30170000     -37.33910000     -71.45660000
H      -44.90110000     -38.23380000     -71.44530000
H      -43.20820000     -37.59560000     -71.51530000
S      -48.74540000     -33.75220000     -72.71600000
S      -44.68430000     -36.53100000     -69.83500000
C      -47.49480000     -32.45750000     -72.69030000
H      -46.98780000     -32.37220000     -73.68870000
H      -47.98380000     -31.52600000     -72.47850000
C      -44.18060000     -34.78930000     -69.93360000
H      -44.29750000     -34.39730000     -70.98050000
H      -43.10290000     -34.75580000     -69.71280000
C      -45.00670000     -33.96690000     -68.92000000
H      -46.10390000     -34.22470000     -69.10810000
H      -44.69860000     -34.48320000     -67.97630000
C      -46.53210000     -32.73140000     -71.50900000
H      -45.83000000     -33.48660000     -71.79300000
H      -47.08470000     -33.05590000     -70.58940000
C      -45.68910000     -31.61960000     -71.17680000
C      -45.59740000     -30.41940000     -71.87070000
C      -44.79300000     -31.56230000     -70.05080000
H      -46.03790000     -30.19080000     -72.83940000
C      -44.13750000     -30.36810000     -69.84630000
C      -44.61200000     -32.51940000     -68.96270000
C      -44.00070000     -31.98460000     -67.90620000
S      -44.42230000     -29.28050000     -71.18090000
S      -43.20590000     -30.38080000     -68.36240000
H      -43.65160000     -32.30030000     -66.92240000
