40
Properties=species:S:1:pos:R:3 #=T CELL(abcABC):=T 1.889726e+02=T 90.00000=T Traj:=T positionsangstrom=T Step:=T 0=T Bead:=T pbc="F F F"
C      -43.68640000     -36.01100000     -72.99690000
C      -44.88990000     -36.49900000     -72.45820000
C      -46.11030000     -35.96880000     -72.82770000
C      -46.18680000     -34.94610000     -73.78690000
C      -44.98940000     -34.45600000     -74.28000000
C      -43.73630000     -34.93610000     -73.89720000
H      -42.81520000     -36.54560000     -72.62390000
H      -47.07160000     -36.41660000     -72.29660000
H      -44.98620000     -33.59430000     -74.88250000
H      -42.84490000     -34.52670000     -74.36630000
C      -47.55560000     -34.30380000     -74.23110000
H      -47.93320000     -34.90400000     -75.06020000
H      -47.36290000     -33.29110000     -74.77200000
C      -44.74250000     -37.49050000     -71.32480000
H      -45.51300000     -38.21060000     -71.31270000
H      -43.79580000     -38.00880000     -71.31060000
S      -48.83080000     -34.19560000     -72.86980000
S      -45.07500000     -36.64190000     -69.69220000
C      -48.05790000     -32.62080000     -72.06550000
H      -47.92190000     -31.94150000     -72.93780000
H      -48.79940000     -32.15470000     -71.50010000
C      -44.22390000     -35.05020000     -69.86070000
H      -44.29240000     -34.80570000     -70.90780000
H      -43.14070000     -35.21350000     -69.59780000
C      -44.85210000     -33.96700000     -68.96610000
H      -45.92820000     -34.05570000     -68.97180000
H      -44.63960000     -34.19350000     -67.91210000
C      -46.82110000     -32.84780000     -71.29630000
H      -46.17430000     -33.64770000     -71.64510000
H      -47.14630000     -33.07040000     -70.26180000
C      -45.88840000     -31.60000000     -71.14570000
C      -46.15390000     -30.40020000     -71.66850000
C      -44.77690000     -31.62940000     -70.27380000
H      -46.92880000     -30.03830000     -72.39120000
C      -44.09010000     -30.42540000     -70.22510000
C      -44.27110000     -32.56910000     -69.25430000
C      -43.18120000     -32.03930000     -68.59650000
S      -44.86780000     -29.26780000     -71.18870000
S      -42.80480000     -30.33230000     -69.06010000
H      -42.77140000     -32.41250000     -67.70810000
