40
Properties=species:S:1:pos:R:3 #=T CELL(abcABC):=T 1.889726e+02=T 90.00000=T Traj:=T positionsangstrom=T Step:=T 0=T Bead:=T pbc="F F F"
C      -43.83930000     -36.22360000     -73.04390000
C      -44.95180000     -36.58440000     -72.26160000
C      -46.22080000     -36.18760000     -72.69920000
C      -46.36580000     -35.29720000     -73.72360000
C      -45.23750000     -34.88330000     -74.46770000
C      -43.98190000     -35.35690000     -74.13900000
H      -42.86390000     -36.53210000     -72.69910000
H      -47.11030000     -36.60330000     -72.31630000
H      -45.36360000     -34.30620000     -75.36330000
H      -43.12660000     -35.14350000     -74.73050000
C      -47.74670000     -34.84660000     -74.12220000
H      -48.26900000     -35.70750000     -74.21570000
H      -47.74910000     -34.21740000     -75.07840000
C      -44.76210000     -37.45200000     -71.07980000
H      -45.45680000     -38.29070000     -70.93530000
H      -43.77520000     -37.99530000     -71.03730000
S      -48.69900000     -33.85150000     -72.83690000
S      -45.00220000     -36.58150000     -69.39980000
C      -47.67800000     -32.41060000     -72.57360000
H      -47.00620000     -32.21880000     -73.48570000
H      -48.29590000     -31.52550000     -72.47180000
C      -44.23550000     -34.95160000     -69.81100000
H      -44.45990000     -34.74590000     -70.88220000
H      -43.15800000     -34.96070000     -69.66360000
C      -44.74270000     -33.88640000     -68.83210000
H      -45.85560000     -33.89460000     -68.76800000
H      -44.27930000     -34.18340000     -67.84380000
C      -46.95370000     -32.58800000     -71.22390000
H      -46.34300000     -33.47360000     -71.33910000
H      -47.64430000     -32.71200000     -70.44250000
C      -46.07420000     -31.40770000     -71.04790000
C      -46.17490000     -30.11240000     -71.61420000
C      -44.89880000     -31.56530000     -70.12700000
H      -46.99920000     -29.77010000     -72.22240000
C      -44.11640000     -30.41270000     -70.32000000
C      -44.30580000     -32.47930000     -69.15380000
C      -43.05880000     -32.05100000     -68.72530000
S      -44.79950000     -29.11710000     -71.26400000
S      -42.65270000     -30.47730000     -69.34370000
H      -42.35740000     -32.64880000     -68.14920000
