40
Properties=species:S:1:pos:R:3 #=T CELL(abcABC):=T 1.889726e+02=T 90.00000=T Traj:=T positionsangstrom=T Step:=T 0=T Bead:=T pbc="F F F"
C      -48.37690000     -31.77370000     -73.00350000
C      -47.22990000     -32.16640000     -72.28240000
C      -46.42870000     -33.17220000     -72.71020000
C      -46.76910000     -33.91040000     -73.89910000
C      -47.85640000     -33.42290000     -74.64080000
C      -48.67810000     -32.38050000     -74.19450000
H      -49.09050000     -31.14560000     -72.54030000
H      -45.43780000     -33.36770000     -72.33420000
H      -48.15900000     -33.89930000     -75.53270000
H      -49.62590000     -32.19440000     -74.78870000
C      -46.02570000     -35.20400000     -74.26750000
H      -45.07580000     -34.86750000     -74.59490000
H      -46.65180000     -35.61860000     -74.99490000
C      -47.06550000     -31.65020000     -70.88840000
H      -45.95180000     -31.53500000     -70.77920000
H      -47.58850000     -30.67410000     -70.77300000
S      -45.92160000     -36.30070000     -72.81930000
S      -47.79670000     -32.69330000     -69.50650000
C      -44.00010000     -36.14170000     -72.57820000
H      -43.64690000     -37.17890000     -72.73200000
H      -43.65130000     -35.43900000     -73.28490000
C      -46.97740000     -34.34060000     -69.67860000
H      -46.81070000     -34.53920000     -70.73870000
H      -47.76050000     -35.11060000     -69.40110000
C      -45.75910000     -34.38540000     -68.78180000
H      -46.11360000     -34.17930000     -67.77870000
H      -45.38570000     -35.32450000     -68.82700000
C      -43.59520000     -35.77240000     -71.13160000
H      -42.68560000     -36.44460000     -70.90750000
H      -44.45200000     -36.02460000     -70.43850000
C      -43.13000000     -34.38900000     -70.95860000
C      -42.20000000     -33.80900000     -71.81930000
C      -43.68970000     -33.39980000     -70.09720000
H      -41.65700000     -34.29480000     -72.60430000
C      -43.05250000     -32.09430000     -70.27540000
C      -44.72520000     -33.36510000     -69.15950000
C      -44.72580000     -32.18000000     -68.47930000
S      -41.87410000     -32.08740000     -71.56300000
S      -43.55140000     -31.03340000     -69.03010000
H      -45.43290000     -31.92490000     -67.65070000
