40
Properties=species:S:1:pos:R:3 #=T CELL(abcABC):=T 1.889726e+02=T 90.00000=T Traj:=T positionsangstrom=T Step:=T 0=T Bead:=T pbc="F F F"
C      -48.30970000     -31.90860000     -73.18980000
C      -47.31380000     -32.36840000     -72.34390000
C      -46.43720000     -33.45150000     -72.70640000
C      -46.70520000     -34.08150000     -73.96980000
C      -47.67430000     -33.58350000     -74.84920000
C      -48.42560000     -32.48820000     -74.44850000
H      -48.84420000     -31.02590000     -72.96720000
H      -45.63530000     -33.81760000     -72.08690000
H      -47.77060000     -34.00800000     -75.79900000
H      -49.12620000     -32.00880000     -75.21040000
C      -45.81630000     -35.24880000     -74.31770000
H      -44.74400000     -34.92970000     -74.57710000
H      -46.18180000     -35.81770000     -75.21270000
C      -47.17140000     -31.57890000     -71.07620000
H      -46.18300000     -31.32130000     -70.93270000
H      -47.78920000     -30.70470000     -71.16530000
S      -45.58930000     -36.48280000     -72.97300000
S      -48.02120000     -32.54910000     -69.61340000
C      -43.93960000     -36.17280000     -72.41720000
H      -43.28440000     -37.03020000     -72.61530000
H      -43.47580000     -35.47020000     -73.09150000
C      -47.15870000     -34.17560000     -69.60080000
H      -46.99070000     -34.62730000     -70.55440000
H      -47.92110000     -34.86880000     -69.21460000
C      -45.90980000     -34.17410000     -68.70000000
H      -46.26250000     -33.92760000     -67.58620000
H      -45.38990000     -35.14770000     -68.76330000
C      -43.83480000     -35.77060000     -70.96930000
H      -43.19690000     -36.38550000     -70.35730000
H      -44.81250000     -35.95360000     -70.62560000
C      -43.33410000     -34.33120000     -70.89520000
C      -42.24510000     -33.90610000     -71.59160000
C      -43.82190000     -33.25900000     -69.99260000
H      -41.62810000     -34.51760000     -72.19920000
C      -43.07000000     -32.16020000     -70.11870000
C      -44.89050000     -33.08490000     -69.05330000
C      -44.75760000     -31.84910000     -68.43390000
S      -41.75270000     -32.28280000     -71.23710000
S      -43.59720000     -30.81310000     -69.16060000
H      -45.45520000     -31.36180000     -67.71730000
