40
Properties=species:S:1:pos:R:3 #=T CELL(abcABC):=T 1.889726e+02=T 90.00000=T Traj:=T positionsangstrom=T Step:=T 0=T Bead:=T pbc="F F F"
C      -45.49280000     -35.20720000     -74.50030000
C      -44.88550000     -33.94340000     -74.62420000
C      -45.66280000     -32.76440000     -74.50030000
C      -47.01190000     -32.81580000     -74.18790000
C      -47.56040000     -34.06470000     -74.07310000
C      -46.82650000     -35.21000000     -74.29090000
H      -44.89720000     -36.11180000     -74.47460000
H      -45.12280000     -31.82770000     -74.58180000
H      -48.64580000     -34.12420000     -73.81350000
H      -47.34600000     -36.16300000     -74.30430000
C      -47.93590000     -31.57650000     -74.04140000
H      -48.89050000     -31.94460000     -73.68490000
H      -48.03630000     -31.06680000     -74.95990000
C      -43.37950000     -33.83190000     -74.78770000
H      -43.17870000     -34.14950000     -75.84480000
H      -43.11160000     -32.77870000     -74.72830000
S      -47.30110000     -30.29330000     -72.83130000
S      -42.38120000     -34.76030000     -73.56550000
C      -47.18400000     -31.13630000     -71.23890000
H      -46.90240000     -30.34820000     -70.55650000
H      -48.17290000     -31.35960000     -70.85290000
C      -43.40980000     -34.94240000     -71.98960000
H      -43.09070000     -35.84120000     -71.45640000
H      -44.45350000     -35.04850000     -72.32800000
C      -43.12060000     -33.77550000     -71.03460000
H      -42.00380000     -33.71370000     -70.98530000
H      -43.44900000     -32.82230000     -71.46030000
C      -46.23340000     -32.33470000     -71.08210000
H      -45.31760000     -32.06160000     -71.56340000
H      -46.58180000     -33.21530000     -71.73930000
C      -46.04570000     -32.67690000     -69.61280000
C      -47.03540000     -32.50160000     -68.64320000
C      -44.93060000     -33.45720000     -69.16390000
H      -48.10950000     -32.13630000     -68.72030000
C      -45.06420000     -33.71970000     -67.78290000
C      -43.67530000     -33.97700000     -69.64730000
C      -42.94730000     -34.61840000     -68.70510000
S      -46.59000000     -33.25570000     -67.15810000
S      -43.76410000     -34.62300000     -67.02180000
H      -41.91600000     -35.00380000     -68.86790000
