40
Properties=species:S:1:pos:R:3 #=T CELL(abcABC):=T 1.889726e+02=T 90.00000=T Traj:=T positionsangstrom=T Step:=T 0=T Bead:=T pbc="F F F"
C      -41.67440000     -34.90390000     -72.21510000
C      -43.06210000     -34.73240000     -72.21840000
C      -43.60970000     -33.47130000     -72.13640000
C      -42.88020000     -32.30360000     -71.95240000
C      -41.44830000     -32.42570000     -71.85870000
C      -40.88100000     -33.70840000     -71.97050000
H      -41.13370000     -35.90160000     -72.27410000
H      -44.71050000     -33.47540000     -72.30770000
H      -40.88600000     -31.62000000     -71.49870000
H      -39.81990000     -33.71510000     -72.04950000
C      -43.53390000     -30.98750000     -71.95420000
H      -44.52210000     -31.03010000     -72.44740000
H      -42.91950000     -30.20450000     -72.29880000
C      -44.03320000     -35.90100000     -72.44500000
H      -45.03520000     -35.50350000     -72.54220000
H      -43.84290000     -36.51190000     -73.27260000
S      -43.76950000     -30.44830000     -70.14820000
S      -44.09030000     -36.87340000     -70.82530000
C      -44.58880000     -31.89540000     -69.42580000
H      -44.43890000     -32.63020000     -70.17770000
H      -44.08640000     -32.14820000     -68.45680000
C      -44.69270000     -35.53740000     -69.72460000
H      -44.16110000     -34.58030000     -69.90630000
H      -44.37560000     -35.81170000     -68.69450000
C      -46.21520000     -35.31150000     -69.66970000
H      -46.72220000     -36.26380000     -69.50410000
H      -46.32210000     -34.69390000     -68.79180000
C      -46.12030000     -31.69880000     -69.12750000
H      -46.29610000     -30.77410000     -68.66320000
H      -46.49800000     -32.38480000     -68.26160000
C      -46.96470000     -31.98040000     -70.27990000
C      -47.60980000     -30.91130000     -70.82880000
C      -47.33520000     -33.24430000     -70.94390000
H      -47.62700000     -29.85940000     -70.52370000
C      -48.07330000     -32.98060000     -72.08680000
C      -46.99630000     -34.61970000     -70.82810000
C      -47.62050000     -35.43790000     -71.74900000
S      -48.47500000     -31.23610000     -72.29470000
S      -48.41860000     -34.43920000     -72.97290000
H      -47.58000000     -36.54110000     -71.89460000
