40
Properties=species:S:1:pos:R:3 #=T CELL(abcABC):=T 1.889726e+02=T 90.00000=T Traj:=T positionsangstrom=T Step:=T 0=T Bead:=T pbc="F F F"
C      -41.54220000     -34.90440000     -72.11440000
C      -42.92040000     -34.73760000     -72.42020000
C      -43.48800000     -33.48220000     -72.41030000
C      -42.74490000     -32.32530000     -72.02320000
C      -41.38380000     -32.46060000     -71.67590000
C      -40.76190000     -33.75910000     -71.85130000
H      -41.01200000     -35.86270000     -72.19220000
H      -44.51340000     -33.34460000     -72.62860000
H      -40.72860000     -31.58430000     -71.65640000
H      -39.66350000     -33.91750000     -71.75080000
C      -43.36870000     -30.91210000     -71.84550000
H      -44.22760000     -30.84450000     -72.48550000
H      -42.60240000     -30.15390000     -72.23080000
C      -43.78400000     -36.00770000     -72.58480000
H      -44.72120000     -35.79360000     -73.20110000
H      -43.23140000     -36.72860000     -73.17570000
S      -43.77330000     -30.42570000     -70.10760000
S      -44.17780000     -36.74160000     -70.93740000
C      -44.57580000     -31.82530000     -69.28010000
H      -44.03610000     -32.67620000     -69.70110000
H      -44.17390000     -31.76360000     -68.23690000
C      -44.73530000     -35.51780000     -69.74950000
H      -44.24310000     -34.59550000     -69.99730000
H      -44.46490000     -35.89970000     -68.76080000
C      -46.24360000     -35.28980000     -69.71600000
H      -46.71200000     -36.25100000     -69.45830000
H      -46.49360000     -34.66570000     -68.83100000
C      -46.09480000     -31.83970000     -69.17660000
H      -46.34190000     -30.98220000     -68.61700000
H      -46.29400000     -32.70500000     -68.51270000
C      -46.88290000     -31.95800000     -70.36070000
C      -47.61830000     -30.91580000     -70.83630000
C      -47.20170000     -33.22090000     -71.06000000
H      -47.50510000     -29.83450000     -70.45500000
C      -48.14450000     -32.94420000     -72.05950000
C      -46.89080000     -34.62460000     -70.94160000
C      -47.58380000     -35.39510000     -71.86390000
S      -48.74080000     -31.34400000     -72.14050000
S      -48.65030000     -34.44720000     -72.83660000
H      -47.65730000     -36.44590000     -72.02670000
