40
Properties=species:S:1:pos:R:3 #=T CELL(abcABC):=T 1.889726e+02=T 90.00000=T Traj:=T positionsangstrom=T Step:=T 0=T Bead:=T pbc="F F F"
C      -41.39950000     -34.73420000     -71.95560000
C      -42.72550000     -34.67110000     -72.38870000
C      -43.36800000     -33.38180000     -72.42510000
C      -42.65770000     -32.23760000     -72.01750000
C      -41.31810000     -32.33100000     -71.51930000
C      -40.72350000     -33.57710000     -71.52710000
H      -40.81560000     -35.66870000     -71.95990000
H      -44.37230000     -33.20590000     -72.80920000
H      -40.88480000     -31.50920000     -70.94630000
H      -39.61190000     -33.56050000     -71.37540000
C      -43.34610000     -30.86790000     -71.96010000
H      -44.31680000     -30.81920000     -72.52590000
H      -42.78480000     -30.03300000     -72.23100000
C      -43.51010000     -35.82470000     -72.83220000
H      -44.24280000     -35.46560000     -73.51010000
H      -42.83960000     -36.55800000     -73.31590000
S      -43.87910000     -30.35270000     -70.22450000
S      -44.34370000     -36.82860000     -71.44290000
C      -44.62520000     -31.90520000     -69.40340000
H      -44.43580000     -32.76850000     -70.06290000
H      -44.05260000     -31.93840000     -68.46320000
C      -44.67180000     -35.68990000     -69.90070000
H      -44.16850000     -34.71530000     -70.00820000
H      -44.32140000     -36.20760000     -69.00060000
C      -46.15270000     -35.41240000     -69.60430000
H      -46.60910000     -36.37210000     -69.45760000
H      -46.13060000     -34.89820000     -68.64610000
C      -46.11160000     -31.73540000     -69.05350000
H      -46.34110000     -30.71210000     -68.60040000
H      -46.35590000     -32.46500000     -68.32920000
C      -47.05610000     -31.93850000     -70.22780000
C      -47.66560000     -30.90850000     -70.87020000
C      -47.36090000     -33.18780000     -70.77370000
H      -47.69530000     -29.85870000     -70.47790000
C      -48.16690000     -33.06090000     -71.90000000
C      -47.01500000     -34.65410000     -70.64880000
C      -47.73440000     -35.47450000     -71.51430000
S      -48.60190000     -31.41940000     -72.24550000
S      -48.68440000     -34.57980000     -72.66710000
H      -47.58350000     -36.51980000     -71.69790000
