40
Properties=species:S:1:pos:R:3 #=T CELL(abcABC):=T 1.889726e+02=T 90.00000=T Traj:=T positionsangstrom=T Step:=T 0=T Bead:=T pbc="F F F"
C      -45.25960000     -35.19830000     -74.57890000
C      -44.70730000     -33.88570000     -74.54150000
C      -45.58740000     -32.78610000     -74.41900000
C      -46.98640000     -32.94630000     -74.12690000
C      -47.43090000     -34.24000000     -74.08140000
C      -46.64970000     -35.35290000     -74.43340000
H      -44.70800000     -36.03620000     -74.81550000
H      -45.16780000     -31.80130000     -74.45960000
H      -48.47280000     -34.43200000     -73.96210000
H      -47.18820000     -36.32790000     -74.45900000
C      -47.95400000     -31.76810000     -73.99180000
H      -48.93430000     -32.05040000     -73.62360000
H      -48.11840000     -31.28470000     -75.01700000
C      -43.25880000     -33.68640000     -74.67300000
H      -42.89560000     -34.04760000     -75.56610000
H      -42.94660000     -32.60210000     -74.57880000
S      -47.23510000     -30.41150000     -72.98820000
S      -42.38050000     -34.84020000     -73.50230000
C      -47.41990000     -31.00270000     -71.18770000
H      -47.39740000     -30.12210000     -70.50290000
H      -48.43810000     -31.44520000     -71.17100000
C      -43.26140000     -34.82320000     -71.97600000
H      -43.04170000     -35.69910000     -71.45150000
H      -44.40770000     -34.89730000     -72.12070000
C      -43.13170000     -33.61980000     -71.03990000
H      -42.05100000     -33.50270000     -70.80940000
H      -43.47850000     -32.67540000     -71.33990000
C      -46.26800000     -32.07660000     -70.97580000
H      -45.32640000     -31.65700000     -71.07140000
H      -46.39570000     -32.84570000     -71.73940000
C      -46.21850000     -32.65750000     -69.57950000
C      -47.17270000     -32.53660000     -68.61280000
C      -45.02470000     -33.40330000     -69.13330000
H      -48.06180000     -31.77850000     -68.54610000
C      -45.19980000     -33.81040000     -67.77770000
C      -43.75920000     -33.87930000     -69.68020000
C      -43.06840000     -34.48230000     -68.67960000
S      -46.63090000     -33.17950000     -67.11210000
S      -43.81000000     -34.69860000     -67.15810000
H      -42.06900000     -34.97540000     -68.80780000
