40
Properties=species:S:1:pos:R:3 #=T CELL(abcABC):=T 1.889726e+02=T 90.00000=T Traj:=T positionsangstrom=T Step:=T 0=T Bead:=T pbc="F F F"
C      -41.78360000     -34.87350000     -72.22070000
C      -43.17950000     -34.73680000     -72.31340000
C      -43.76790000     -33.45430000     -72.32430000
C      -42.98590000     -32.27820000     -72.13920000
C      -41.59530000     -32.44950000     -72.06090000
C      -41.02680000     -33.73840000     -72.18040000
H      -41.40870000     -35.95180000     -72.16430000
H      -44.85810000     -33.31350000     -72.47720000
H      -40.91110000     -31.61110000     -71.96710000
H      -39.96430000     -33.75510000     -72.11990000
C      -43.66410000     -30.95620000     -71.88560000
H      -44.68390000     -31.04700000     -72.37630000
H      -43.18810000     -30.09630000     -72.31740000
C      -44.02480000     -36.04510000     -72.31370000
H      -45.04460000     -35.92640000     -72.79820000
H      -43.48450000     -36.84260000     -72.96010000
S      -43.87270000     -30.37310000     -70.12370000
S      -44.30600000     -36.86470000     -70.71990000
C      -44.52420000     -31.82460000     -69.20860000
H      -44.23770000     -32.78660000     -69.64000000
H      -44.03670000     -31.86710000     -68.26420000
C      -44.88040000     -35.53280000     -69.55290000
H      -44.39610000     -34.55520000     -69.69050000
H      -44.52710000     -35.88340000     -68.57840000
C      -46.39810000     -35.27350000     -69.46540000
H      -46.94070000     -36.28380000     -69.45910000
H      -46.53450000     -34.66680000     -68.52020000
C      -46.09920000     -31.76090000     -69.01400000
H      -46.42100000     -30.75240000     -68.63700000
H      -46.42440000     -32.49020000     -68.27820000
C      -46.85990000     -31.93410000     -70.26110000
C      -47.43760000     -30.88580000     -70.91620000
C      -47.25570000     -33.20670000     -70.89470000
H      -47.12830000     -29.90960000     -70.72020000
C      -47.89840000     -33.01530000     -72.12480000
C      -47.00690000     -34.59230000     -70.69960000
C      -47.32260000     -35.39950000     -71.80510000
S      -48.24450000     -31.32040000     -72.46850000
S      -48.18330000     -34.45600000     -72.96550000
H      -47.03480000     -36.47380000     -71.84320000
