40
Properties=species:S:1:pos:R:3 #=T CELL(abcABC):=T 1.889726e+02=T 90.00000=T Traj:=T positionsangstrom=T Step:=T 0=T Bead:=T pbc="F F F"
C      -41.67120000     -34.99760000     -72.09440000
C      -43.09150000     -34.88600000     -71.99090000
C      -43.65720000     -33.63850000     -71.98660000
C      -42.88660000     -32.52100000     -72.07550000
C      -41.46500000     -32.61730000     -72.14110000
C      -40.81700000     -33.86730000     -72.06420000
H      -41.35400000     -35.98970000     -72.08450000
H      -44.73450000     -33.50150000     -71.96860000
H      -40.90460000     -31.64380000     -72.10050000
H      -39.74750000     -33.99620000     -72.29370000
C      -43.58090000     -31.19210000     -72.05300000
H      -44.58930000     -31.26450000     -72.48840000
H      -43.12720000     -30.41350000     -72.63330000
C      -44.01900000     -36.04460000     -72.08850000
H      -44.92540000     -35.77400000     -72.66200000
H      -43.64830000     -36.91400000     -72.64290000
S      -43.69470000     -30.34020000     -70.45250000
S      -44.76800000     -36.76110000     -70.44590000
C      -44.56790000     -31.57500000     -69.37870000
H      -44.39590000     -32.55190000     -69.87380000
H      -44.03280000     -31.63490000     -68.40520000
C      -45.02940000     -35.33800000     -69.31650000
H      -44.50550000     -34.47240000     -69.63100000
H      -44.56960000     -35.54640000     -68.37870000
C      -46.53460000     -34.99520000     -69.23460000
H      -47.05970000     -35.80670000     -68.79230000
H      -46.61730000     -34.14820000     -68.54560000
C      -46.06710000     -31.45570000     -69.21350000
H      -46.38630000     -30.41380000     -68.84420000
H      -46.26590000     -32.01960000     -68.29900000
C      -46.84240000     -31.82880000     -70.47010000
C      -47.21900000     -30.83670000     -71.30120000
C      -47.13650000     -33.15950000     -71.01680000
H      -47.10220000     -29.77360000     -71.20350000
C      -47.82530000     -33.01160000     -72.22320000
C      -47.15980000     -34.55870000     -70.52360000
C      -47.57780000     -35.46120000     -71.49830000
S      -48.10570000     -31.36230000     -72.72840000
S      -48.23340000     -34.59700000     -72.93460000
H      -47.75150000     -36.54330000     -71.39380000
