40
Properties=species:S:1:pos:R:3 #=T CELL(abcABC):=T 1.889726e+02=T 90.00000=T Traj:=T positionsangstrom=T Step:=T 0=T Bead:=T pbc="F F F"
C      -41.50220000     -34.85180000     -71.95540000
C      -42.89620000     -34.71800000     -72.27660000
C      -43.41280000     -33.42870000     -72.21600000
C      -42.65440000     -32.29230000     -71.88810000
C      -41.27040000     -32.40470000     -71.53870000
C      -40.73120000     -33.73020000     -71.68830000
H      -40.97960000     -35.75530000     -72.03480000
H      -44.45530000     -33.24310000     -72.41930000
H      -40.70230000     -31.51530000     -71.18880000
H      -39.69940000     -33.87430000     -71.26130000
C      -43.44250000     -30.94090000     -71.87790000
H      -44.40100000     -31.09640000     -72.44540000
H      -42.97110000     -30.11210000     -72.44490000
C      -43.68100000     -35.90790000     -72.68730000
H      -44.53070000     -35.69530000     -73.30070000
H      -43.03390000     -36.64450000     -73.22140000
S      -43.73350000     -30.34330000     -70.13950000
S      -44.28580000     -36.88160000     -71.21950000
C      -44.51130000     -31.80550000     -69.34870000
H      -44.32300000     -32.70600000     -69.97920000
H      -44.08590000     -32.04280000     -68.40870000
C      -44.69600000     -35.44240000     -70.08890000
H      -44.25060000     -34.54070000     -70.50420000
H      -44.08320000     -35.58050000     -69.19290000
C      -46.09980000     -35.22480000     -69.71520000
H      -46.56960000     -36.11100000     -69.30340000
H      -45.97370000     -34.43680000     -68.89580000
C      -46.05420000     -31.75810000     -69.14810000
H      -46.33030000     -30.67840000     -68.79590000
H      -46.35120000     -32.52910000     -68.44700000
C      -46.98130000     -31.99100000     -70.31890000
C      -47.63360000     -30.93080000     -70.89890000
C      -47.30190000     -33.20430000     -70.98710000
H      -47.37190000     -29.87960000     -70.54950000
C      -48.28250000     -33.01330000     -71.98390000
C      -46.97810000     -34.67170000     -70.83490000
C      -47.62710000     -35.50070000     -71.76320000
S      -48.72160000     -31.38970000     -72.12300000
S      -48.70650000     -34.49120000     -72.81010000
H      -47.64780000     -36.52850000     -71.91560000
