40
Properties=species:S:1:pos:R:3 #=T CELL(abcABC):=T 1.889726e+02=T 90.00000=T Traj:=T positionsangstrom=T Step:=T 0=T Bead:=T pbc="F F F"
C      -41.44030000     -34.54180000     -72.03140000
C      -42.76170000     -34.41070000     -72.54460000
C      -43.42760000     -33.16390000     -72.55980000
C      -42.83100000     -32.04190000     -71.97230000
C      -41.54680000     -32.21880000     -71.40830000
C      -40.87720000     -33.40260000     -71.46480000
H      -40.92820000     -35.47180000     -72.01370000
H      -44.40840000     -33.08720000     -73.04900000
H      -40.99830000     -31.35040000     -71.00040000
H      -39.85870000     -33.58820000     -71.09080000
C      -43.58030000     -30.77650000     -72.00810000
H      -44.51920000     -30.82650000     -72.65090000
H      -43.01410000     -29.96280000     -72.39580000
C      -43.60430000     -35.59470000     -73.02770000
H      -44.48450000     -35.22540000     -73.58220000
H      -42.98010000     -36.27510000     -73.66580000
S      -44.03630000     -30.11550000     -70.30220000
S      -44.30090000     -36.60820000     -71.62330000
C      -44.39390000     -31.62550000     -69.26270000
H      -43.81450000     -32.52800000     -69.66960000
H      -44.02290000     -31.30930000     -68.32930000
C      -44.45700000     -35.50540000     -70.17600000
H      -44.26850000     -34.51660000     -70.48780000
H      -43.87060000     -35.88560000     -69.39620000
C      -45.92850000     -35.47700000     -69.58560000
H      -46.23830000     -36.50710000     -69.40970000
H      -45.91170000     -34.80370000     -68.69310000
C      -45.93780000     -31.86440000     -69.01380000
H      -46.29610000     -30.93040000     -68.59030000
H      -46.00790000     -32.60650000     -68.31020000
C      -46.84370000     -32.15230000     -70.19650000
C      -47.48010000     -31.16040000     -70.83210000
C      -47.30890000     -33.53160000     -70.71830000
H      -47.31810000     -30.09650000     -70.68780000
C      -48.21580000     -33.34360000     -71.81830000
C      -46.95510000     -34.91720000     -70.59220000
C      -47.62280000     -35.74460000     -71.46390000
S      -48.66010000     -31.68090000     -72.05660000
S      -48.69850000     -34.86730000     -72.50660000
H      -47.39960000     -36.82080000     -71.46400000
