40
Properties=species:S:1:pos:R:3 #=T CELL(abcABC):=T 1.889726e+02=T 90.00000=T Traj:=T positionsangstrom=T Step:=T 0=T Bead:=T pbc="F F F"
C      -45.17180000     -35.24780000     -74.69180000
C      -44.68310000     -33.99650000     -74.39450000
C      -45.54880000     -32.95520000     -74.13930000
C      -46.94460000     -33.08580000     -74.13440000
C      -47.45710000     -34.37890000     -74.34710000
C      -46.56810000     -35.42140000     -74.62830000
H      -44.49790000     -36.03630000     -74.87040000
H      -45.18220000     -31.93420000     -74.00770000
H      -48.51630000     -34.67090000     -74.36250000
H      -47.00970000     -36.40390000     -74.88820000
C      -47.95070000     -31.85030000     -74.05190000
H      -48.85190000     -32.09990000     -73.55130000
H      -48.24930000     -31.60950000     -75.10980000
C      -43.21070000     -33.67900000     -74.48270000
H      -42.73820000     -33.93550000     -75.40150000
H      -43.18800000     -32.58030000     -74.24260000
S      -47.26750000     -30.43510000     -73.06590000
S      -42.22270000     -34.77300000     -73.31940000
C      -47.41530000     -31.13530000     -71.36780000
H      -47.62950000     -30.42590000     -70.59820000
H      -48.24010000     -31.83900000     -71.34350000
C      -43.33550000     -34.82750000     -71.80330000
H      -42.90980000     -35.60490000     -71.17000000
H      -44.32840000     -35.10440000     -72.19170000
C      -43.31170000     -33.48840000     -71.05150000
H      -42.25240000     -33.20750000     -70.94890000
H      -43.81720000     -32.75780000     -71.72030000
C      -46.12690000     -31.95250000     -70.92870000
H      -45.29850000     -31.14780000     -71.06480000
H      -45.88820000     -32.79090000     -71.60180000
C      -46.08080000     -32.45410000     -69.50970000
C      -47.14980000     -32.31010000     -68.63350000
C      -45.03330000     -33.28820000     -69.08380000
H      -48.09570000     -31.63830000     -68.61950000
C      -45.25960000     -33.79170000     -67.78690000
C      -43.82520000     -33.71060000     -69.66370000
C      -43.00520000     -34.33710000     -68.74650000
S      -46.78180000     -33.26340000     -67.14550000
S      -43.89950000     -34.73290000     -67.22750000
H      -42.09020000     -34.93580000     -68.93790000
