40
Properties=species:S:1:pos:R:3 #=T CELL(abcABC):=T 1.889726e+02=T 90.00000=T Traj:=T positionsangstrom=T Step:=T 0=T Bead:=T pbc="F F F"
C      -41.63660000     -34.26960000     -72.29950000
C      -42.97030000     -34.23340000     -72.64150000
C      -43.65340000     -32.99380000     -72.56510000
C      -42.99320000     -31.87490000     -72.09270000
C      -41.67290000     -31.91190000     -71.63650000
C      -40.97200000     -33.12500000     -71.76950000
H      -41.12580000     -35.26100000     -72.40580000
H      -44.72160000     -32.85690000     -72.81750000
H      -41.18480000     -31.03240000     -71.24320000
H      -40.00120000     -33.18060000     -71.37180000
C      -43.88870000     -30.64340000     -71.90030000
H      -44.80810000     -30.80320000     -72.39770000
H      -43.50790000     -29.71710000     -72.43460000
C      -43.69670000     -35.45510000     -73.02200000
H      -44.56850000     -35.09950000     -73.59720000
H      -43.10840000     -36.14690000     -73.64630000
S      -44.18030000     -30.19050000     -70.15590000
S      -44.23460000     -36.55920000     -71.66370000
C      -44.55230000     -31.72800000     -69.21070000
H      -44.14680000     -32.60080000     -69.61330000
H      -44.03170000     -31.51920000     -68.21040000
C      -44.31560000     -35.55780000     -70.08900000
H      -44.01410000     -34.52410000     -70.30920000
H      -43.63400000     -35.98410000     -69.39980000
C      -45.73730000     -35.42590000     -69.50600000
H      -46.13970000     -36.38410000     -69.12190000
H      -45.62550000     -34.74350000     -68.67190000
C      -46.05500000     -31.95320000     -68.94680000
H      -46.51230000     -31.14390000     -68.49640000
H      -46.07490000     -32.75020000     -68.13300000
C      -46.88600000     -32.25700000     -70.10760000
C      -47.52270000     -31.30470000     -70.83920000
C      -47.10990000     -33.57960000     -70.72310000
H      -47.48760000     -30.23970000     -70.53670000
C      -48.03840000     -33.47030000     -71.79980000
C      -46.76900000     -34.93730000     -70.47280000
C      -47.49050000     -35.82960000     -71.28230000
S      -48.42060000     -31.84390000     -72.20920000
S      -48.51690000     -35.05300000     -72.40280000
H      -47.65910000     -36.87370000     -71.18050000
