40
Properties=species:S:1:pos:R:3 #=T CELL(abcABC):=T 1.889726e+02=T 90.00000=T Traj:=T positionsangstrom=T Step:=T 0=T Bead:=T pbc="F F F"
C      -42.38980000     -33.47370000     -68.78610000
C      -43.19860000     -34.60820000     -68.79190000
C      -43.13770000     -35.53550000     -69.84950000
C      -42.25200000     -35.30230000     -70.89250000
C      -41.53620000     -34.03260000     -70.95860000
C      -41.58390000     -33.20630000     -69.89330000
H      -42.40940000     -32.93590000     -67.91080000
H      -43.65420000     -36.47110000     -69.84980000
H      -41.12710000     -33.80160000     -71.91560000
H      -41.12830000     -32.29550000     -69.95010000
C      -42.20900000     -36.20180000     -72.10680000
H      -42.49170000     -37.22190000     -71.89230000
H      -41.21860000     -36.20370000     -72.55740000
C      -44.18940000     -34.85520000     -67.64350000
H      -43.92050000     -35.75470000     -67.11710000
H      -44.20340000     -33.98440000     -66.98620000
S      -43.22260000     -35.57010000     -73.51360000
S      -46.02660000     -35.01390000     -68.13530000
C      -44.74690000     -34.69460000     -72.77600000
H      -45.62500000     -34.91960000     -73.42840000
H      -44.84580000     -35.14510000     -71.89980000
C      -46.19130000     -33.60000000     -69.32170000
H      -45.22030000     -33.31790000     -69.82310000
H      -46.60400000     -32.69080000     -68.79130000
C      -47.25850000     -34.02730000     -70.36320000
H      -46.80380000     -34.82580000     -71.04190000
H      -48.23900000     -34.40890000     -69.87350000
C      -44.50990000     -33.17880000     -72.56020000
H      -43.56120000     -32.96700000     -73.05990000
H      -44.33030000     -33.14240000     -71.43890000
C      -45.65630000     -32.28500000     -72.93820000
C      -45.52590000     -31.39140000     -73.94480000
C      -46.95470000     -32.12730000     -72.18640000
H      -44.67300000     -31.19430000     -74.58670000
C      -47.72360000     -31.09090000     -72.73210000
C      -47.64790000     -32.76940000     -71.04920000
C      -48.94960000     -32.29930000     -70.91400000
S      -46.96140000     -30.30610000     -74.13370000
S      -49.21060000     -30.80030000     -71.88910000
H      -49.67420000     -32.61220000     -70.10040000
