40
Properties=species:S:1:pos:R:3 #=T CELL(abcABC):=T 1.889726e+02=T 90.00000=T Traj:=T positionsangstrom=T Step:=T 0=T Bead:=T pbc="F F F"
C      -41.35890000     -34.67640000     -71.86030000
C      -42.68780000     -34.60990000     -72.35990000
C      -43.32540000     -33.33740000     -72.47230000
C      -42.68730000     -32.15710000     -72.00270000
C      -41.39550000     -32.24430000     -71.45020000
C      -40.76770000     -33.49710000     -71.40800000
H      -40.85070000     -35.67320000     -71.72970000
H      -44.29540000     -33.25770000     -72.94960000
H      -40.74930000     -31.41400000     -71.18470000
H      -39.73140000     -33.45150000     -71.13970000
C      -43.49880000     -30.84740000     -71.99370000
H      -44.36560000     -30.96810000     -72.66570000
H      -42.81610000     -30.02270000     -72.28110000
C      -43.49610000     -35.79400000     -72.81640000
H      -44.24410000     -35.42270000     -73.61340000
H      -42.87650000     -36.56400000     -73.30440000
S      -44.05870000     -30.41390000     -70.24030000
S      -44.44810000     -36.67050000     -71.50050000
C      -44.55780000     -31.94890000     -69.45560000
H      -44.34070000     -32.75040000     -70.06580000
H      -43.96280000     -32.17540000     -68.56010000
C      -44.56760000     -35.49300000     -70.10530000
H      -44.01890000     -34.59610000     -70.38330000
H      -44.01570000     -36.00510000     -69.35080000
C      -45.98540000     -35.21100000     -69.60070000
H      -46.34390000     -36.15060000     -69.05320000
H      -45.98510000     -34.57840000     -68.70810000
C      -46.08560000     -31.90030000     -69.05030000
H      -46.27400000     -31.00050000     -68.52980000
H      -46.25330000     -32.66730000     -68.28030000
C      -47.00840000     -32.03880000     -70.19570000
C      -47.52910000     -31.01340000     -70.81950000
C      -47.32170000     -33.27540000     -70.85620000
H      -47.47950000     -30.00970000     -70.46140000
C      -48.18580000     -33.13120000     -71.90540000
C      -46.97590000     -34.72280000     -70.65310000
C      -47.63850000     -35.54550000     -71.51810000
S      -48.58330000     -31.47930000     -72.19050000
S      -48.66560000     -34.66950000     -72.63890000
H      -47.49310000     -36.65940000     -71.45840000
