40
Properties=species:S:1:pos:R:3 #=T CELL(abcABC):=T 1.889726e+02=T 90.00000=T Traj:=T positionsangstrom=T Step:=T 0=T Bead:=T pbc="F F F"
C      -41.96580000     -33.77050000     -72.65680000
C      -43.36240000     -33.90650000     -72.50610000
C      -44.09120000     -32.69660000     -72.30140000
C      -43.50440000     -31.42890000     -72.07210000
C      -42.12570000     -31.36850000     -72.22120000
C      -41.41960000     -32.50450000     -72.54660000
H      -41.31260000     -34.62000000     -72.95860000
H      -45.23100000     -32.76720000     -72.34830000
H      -41.61950000     -30.40970000     -72.08260000
H      -40.33520000     -32.37810000     -72.63780000
C      -44.39320000     -30.21340000     -71.80700000
H      -45.32060000     -30.31850000     -72.29260000
H      -43.83320000     -29.27160000     -72.04630000
C      -44.10960000     -35.24640000     -72.66370000
H      -45.23310000     -35.21360000     -72.87210000
H      -43.73710000     -35.78890000     -73.55940000
S      -44.54350000     -30.07360000     -69.91840000
S      -43.72150000     -36.40420000     -71.26850000
C      -44.56390000     -31.74160000     -69.12910000
H      -43.90270000     -32.36990000     -69.64320000
H      -44.04130000     -31.53470000     -68.17390000
C      -44.27320000     -35.56470000     -69.70730000
H      -43.95230000     -34.51680000     -69.83560000
H      -43.64420000     -35.91130000     -68.85390000
C      -45.75810000     -35.83190000     -69.42070000
H      -45.86950000     -36.88260000     -69.36800000
H      -46.00540000     -35.40870000     -68.42370000
C      -45.90190000     -32.42030000     -68.85710000
H      -46.55480000     -31.90720000     -68.17400000
H      -45.71770000     -33.43210000     -68.34080000
C      -46.75810000     -32.61440000     -70.11380000
C      -47.45760000     -31.57660000     -70.70120000
C      -46.94530000     -33.85380000     -70.77740000
H      -47.43020000     -30.54050000     -70.34720000
C      -47.71040000     -33.79950000     -72.00610000
C      -46.69170000     -35.23810000     -70.46980000
C      -47.03830000     -36.10510000     -71.52460000
S      -48.25530000     -32.11290000     -72.21740000
S      -47.96370000     -35.31920000     -72.81580000
H      -47.09410000     -37.18600000     -71.47310000
