40
Properties=species:S:1:pos:R:3 #=T CELL(abcABC):=T 1.889726e+02=T 90.00000=T Traj:=T positionsangstrom=T Step:=T 0=T Bead:=T pbc="F F F"
C      -42.69030000     -33.41300000     -68.75510000
C      -43.39100000     -34.63040000     -68.72940000
C      -43.23580000     -35.52520000     -69.84660000
C      -42.32650000     -35.23560000     -70.87830000
C      -41.47510000     -34.11350000     -70.71570000
C      -41.75300000     -33.10470000     -69.75960000
H      -42.90320000     -32.66210000     -67.99180000
H      -43.84540000     -36.38540000     -69.97440000
H      -40.66020000     -34.03850000     -71.42570000
H      -41.05520000     -32.30340000     -69.67460000
C      -42.26320000     -36.20290000     -72.01950000
H      -42.80420000     -37.02560000     -71.59910000
H      -41.30000000     -36.60830000     -72.39200000
C      -44.25990000     -35.06600000     -67.60170000
H      -44.08860000     -36.10950000     -67.30600000
H      -44.11730000     -34.37130000     -66.73560000
S      -43.14770000     -35.55230000     -73.61830000
S      -46.05150000     -34.85480000     -68.00420000
C      -44.67520000     -34.63820000     -73.20510000
H      -45.28180000     -34.57150000     -74.15290000
H      -45.31500000     -35.12280000     -72.51780000
C      -46.02080000     -33.74570000     -69.40200000
H      -45.05400000     -33.73240000     -69.93860000
H      -46.04880000     -32.76840000     -69.06490000
C      -47.11440000     -34.13430000     -70.48180000
H      -46.70530000     -34.69390000     -71.28700000
H      -47.88820000     -34.67210000     -70.01610000
C      -44.47320000     -33.22130000     -72.76750000
H      -43.71130000     -32.75370000     -73.45160000
H      -44.14490000     -33.14360000     -71.73810000
C      -45.63380000     -32.21680000     -72.93530000
C      -45.55860000     -31.27070000     -73.94200000
C      -46.87860000     -32.14900000     -72.13240000
H      -44.62160000     -31.02910000     -74.45400000
C      -47.70120000     -31.08510000     -72.68460000
C      -47.59000000     -32.84880000     -71.10730000
C      -48.86610000     -32.33620000     -70.93700000
S      -46.89860000     -30.18750000     -73.98250000
S      -49.24720000     -30.97270000     -71.93750000
H      -49.68620000     -32.74670000     -70.31390000
