40
Properties=species:S:1:pos:R:3 #=T CELL(abcABC):=T 1.889726e+02=T 90.00000=T Traj:=T positionsangstrom=T Step:=T 0=T Bead:=T pbc="F F F"
C      -41.64020000     -33.56650000     -72.57290000
C      -43.01280000     -33.98690000     -72.61120000
C      -43.98950000     -32.96670000     -72.42030000
C      -43.71910000     -31.66600000     -71.97100000
C      -42.34910000     -31.31090000     -71.84840000
C      -41.37160000     -32.18830000     -72.25740000
H      -40.89570000     -34.30390000     -72.85950000
H      -45.02400000     -33.15180000     -72.58930000
H      -42.13520000     -30.31610000     -71.45510000
H      -40.40780000     -31.74940000     -72.38640000
C      -44.75120000     -30.54940000     -71.67980000
H      -45.78760000     -30.85320000     -71.79660000
H      -44.53640000     -29.60330000     -72.22230000
C      -43.39600000     -35.46700000     -72.94570000
H      -44.47170000     -35.54490000     -73.30540000
H      -42.82590000     -35.89780000     -73.79900000
S      -44.59710000     -30.12530000     -69.87850000
S      -43.03500000     -36.52610000     -71.43350000
C      -44.77330000     -31.79660000     -69.00180000
H      -44.08850000     -32.52940000     -69.46520000
H      -44.32560000     -31.53190000     -68.01710000
C      -43.88500000     -35.46060000     -70.12480000
H      -43.68980000     -34.39650000     -70.32680000
H      -43.24530000     -35.68550000     -69.27040000
C      -45.37360000     -35.65200000     -69.80070000
H      -45.49180000     -36.70610000     -69.50690000
H      -45.44760000     -35.10740000     -68.88070000
C      -46.22530000     -32.28700000     -68.85450000
H      -46.83180000     -31.55010000     -68.25100000
H      -46.27580000     -33.18270000     -68.20000000
C      -47.02530000     -32.53810000     -70.04470000
C      -47.93010000     -31.66430000     -70.56370000
C      -46.99690000     -33.76490000     -70.79940000
H      -48.15560000     -30.60750000     -70.27110000
C      -47.92540000     -33.65370000     -71.84590000
C      -46.45950000     -35.10240000     -70.79350000
C      -47.05490000     -35.97980000     -71.65450000
S      -48.88680000     -32.22830000     -71.95670000
S      -48.05230000     -35.15890000     -72.80480000
H      -46.70960000     -36.98720000     -71.82120000
