40
Properties=species:S:1:pos:R:3 #=T CELL(abcABC):=T 1.889726e+02=T 90.00000=T Traj:=T positionsangstrom=T Step:=T 0=T Bead:=T pbc="F F F"
C      -41.60800000     -33.46250000     -72.28730000
C      -42.88580000     -33.89930000     -72.57790000
C      -43.96080000     -32.97840000     -72.50060000
C      -43.73050000     -31.70390000     -72.01270000
C      -42.41910000     -31.26640000     -71.82040000
C      -41.34840000     -32.17730000     -71.91860000
H      -40.67440000     -34.06010000     -72.38220000
H      -44.95880000     -33.27670000     -72.76690000
H      -42.27180000     -30.29230000     -71.40320000
H      -40.31140000     -31.92060000     -71.62640000
C      -44.79710000     -30.70810000     -71.69640000
H      -45.83740000     -31.02910000     -71.94490000
H      -44.52860000     -29.87690000     -72.27620000
C      -43.12230000     -35.31700000     -72.95880000
H      -44.11780000     -35.39310000     -73.50730000
H      -42.37620000     -35.78450000     -73.63670000
S      -44.77260000     -30.16860000     -69.94880000
S      -43.32090000     -36.53610000     -71.55060000
C      -44.78420000     -31.77560000     -68.99160000
H      -44.29200000     -32.63990000     -69.48860000
H      -44.34720000     -31.83380000     -68.00510000
C      -43.88290000     -35.47060000     -70.15820000
H      -43.76000000     -34.43990000     -70.37930000
H      -43.23630000     -35.88970000     -69.33850000
C      -45.37250000     -35.51310000     -69.72450000
H      -45.65710000     -36.49520000     -69.35720000
H      -45.51050000     -34.84190000     -68.81420000
C      -46.29390000     -32.16170000     -68.77080000
H      -46.68680000     -31.34680000     -68.25480000
H      -46.38060000     -32.92410000     -68.01590000
C      -47.08370000     -32.55490000     -70.02440000
C      -47.98410000     -31.65920000     -70.56570000
C      -47.10160000     -33.83360000     -70.71610000
H      -48.08830000     -30.67600000     -70.12440000
C      -47.99650000     -33.80800000     -71.79630000
C      -46.40580000     -35.06640000     -70.74840000
C      -46.80070000     -35.95760000     -71.76020000
S      -48.74630000     -32.28160000     -72.00230000
S      -47.87090000     -35.15980000     -72.89410000
H      -46.46140000     -36.98660000     -71.91890000
