40
Properties=species:S:1:pos:R:3 #=T CELL(abcABC):=T 1.889726e+02=T 90.00000=T Traj:=T positionsangstrom=T Step:=T 0=T Bead:=T pbc="F F F"
C      -41.42680000     -33.47980000     -72.60020000
C      -42.75630000     -33.97740000     -72.61220000
C      -43.72470000     -33.03140000     -72.33280000
C      -43.44770000     -31.69760000     -72.06660000
C      -42.10710000     -31.22210000     -72.13510000
C      -41.09290000     -32.11470000     -72.34090000
H      -40.59850000     -34.12260000     -72.72950000
H      -44.77340000     -33.27270000     -72.43040000
H      -41.84380000     -30.17380000     -71.91410000
H      -40.10780000     -31.64690000     -72.38250000
C      -44.62310000     -30.83630000     -71.78750000
H      -45.46640000     -31.26340000     -72.30210000
H      -44.50350000     -29.80850000     -72.27920000
C      -43.10660000     -35.41170000     -72.83090000
H      -44.01770000     -35.43490000     -73.50320000
H      -42.24310000     -35.92870000     -73.30980000
S      -44.94480000     -30.26390000     -70.06690000
S      -43.40950000     -36.58730000     -71.37410000
C      -44.91310000     -31.79730000     -69.03790000
H      -44.27390000     -32.64790000     -69.45820000
H      -44.34970000     -31.46500000     -68.13090000
C      -43.96650000     -35.41000000     -70.00460000
H      -43.65590000     -34.32030000     -70.22300000
H      -43.48240000     -35.71080000     -69.05100000
C      -45.44700000     -35.50860000     -69.72120000
H      -45.70830000     -36.58860000     -69.44000000
H      -45.55950000     -34.91520000     -68.83730000
C      -46.32430000     -32.30380000     -68.68790000
H      -46.79710000     -31.41400000     -68.21710000
H      -46.32650000     -33.21090000     -68.11770000
C      -47.09730000     -32.63710000     -69.88220000
C      -47.95300000     -31.69500000     -70.39280000
C      -47.04580000     -33.74440000     -70.81190000
H      -48.24420000     -30.73070000     -70.00800000
C      -47.90610000     -33.61410000     -71.89210000
C      -46.45080000     -35.02550000     -70.76340000
C      -46.89780000     -35.86910000     -71.76260000
S      -48.92670000     -32.23260000     -71.77380000
S      -47.94400000     -35.04600000     -72.90920000
H      -46.56380000     -36.83110000     -72.00280000
