40
Properties=species:S:1:pos:R:3 #=T CELL(abcABC):=T 1.889726e+02=T 90.00000=T Traj:=T positionsangstrom=T Step:=T 0=T Bead:=T pbc="F F F"
C      -41.59010000     -33.60850000     -72.59040000
C      -42.92560000     -33.96010000     -72.70810000
C      -43.86840000     -32.95770000     -72.46830000
C      -43.52760000     -31.58510000     -72.15880000
C      -42.17150000     -31.27690000     -71.97060000
C      -41.23500000     -32.29830000     -72.30610000
H      -40.65710000     -34.22940000     -72.78660000
H      -44.92150000     -33.29110000     -72.48330000
H      -41.86360000     -30.25800000     -71.67400000
H      -40.17610000     -32.16770000     -72.29350000
C      -44.57990000     -30.56860000     -71.79790000
H      -45.57380000     -30.87580000     -72.19280000
H      -44.34160000     -29.62880000     -72.22420000
C      -43.34710000     -35.43810000     -72.86990000
H      -44.44690000     -35.54090000     -72.97540000
H      -42.79330000     -35.95420000     -73.72660000
S      -44.81410000     -30.31900000     -69.98180000
S      -43.04600000     -36.38770000     -71.21100000
C      -44.85010000     -31.95510000     -69.20850000
H      -44.23790000     -32.59680000     -69.86500000
H      -44.29620000     -31.86120000     -68.24450000
C      -43.91630000     -35.34740000     -70.01270000
H      -43.64620000     -34.32550000     -70.21690000
H      -43.31970000     -35.37580000     -69.09270000
C      -45.42290000     -35.63190000     -69.76270000
H      -45.42370000     -36.69870000     -69.55270000
H      -45.64860000     -35.09250000     -68.78590000
C      -46.28300000     -32.27360000     -68.78530000
H      -46.69140000     -31.45880000     -68.16280000
H      -46.14100000     -33.13680000     -68.02050000
C      -47.21230000     -32.65490000     -69.87890000
C      -48.13760000     -31.75840000     -70.31480000
C      -47.07130000     -33.77300000     -70.77180000
H      -48.53430000     -30.84670000     -69.95630000
C      -47.91120000     -33.59790000     -71.88980000
C      -46.43200000     -35.11530000     -70.82860000
C      -46.85240000     -35.87750000     -71.88260000
S      -49.05690000     -32.25670000     -71.76150000
S      -47.88770000     -35.02860000     -72.96320000
H      -46.69400000     -36.92910000     -72.18030000
