40
Properties=species:S:1:pos:R:3 #=T CELL(abcABC):=T 1.889726e+02=T 90.00000=T Traj:=T positionsangstrom=T Step:=T 0=T Bead:=T pbc="F F F"
C      -41.80980000     -33.34020000     -72.90420000
C      -43.05590000     -33.86550000     -72.60170000
C      -44.10230000     -32.99510000     -72.28660000
C      -43.88220000     -31.59630000     -72.22160000
C      -42.61390000     -31.11740000     -72.52520000
C      -41.57560000     -31.98350000     -72.83930000
H      -41.04140000     -34.00440000     -73.20080000
H      -45.11180000     -33.38940000     -72.01460000
H      -42.49490000     -30.07630000     -72.42890000
H      -40.55860000     -31.53800000     -73.07650000
C      -45.02040000     -30.67610000     -71.89370000
H      -45.97390000     -31.14120000     -72.03580000
H      -45.06600000     -29.83290000     -72.50240000
C      -43.27690000     -35.33930000     -72.77060000
H      -44.37630000     -35.53560000     -72.97860000
H      -42.59080000     -35.78440000     -73.53930000
S      -44.83350000     -30.03020000     -70.17580000
S      -42.95630000     -36.24370000     -71.12520000
C      -44.98030000     -31.64070000     -69.23620000
H      -44.54910000     -32.42190000     -69.86780000
H      -44.47720000     -31.46590000     -68.29750000
C      -43.58030000     -34.99130000     -69.88350000
H      -43.36860000     -33.98270000     -70.19830000
H      -42.96540000     -35.20210000     -69.03100000
C      -45.05910000     -35.27410000     -69.40550000
H      -45.09130000     -36.29930000     -69.15370000
H      -45.18920000     -34.65310000     -68.51950000
C      -46.45110000     -32.03620000     -68.80410000
H      -46.95130000     -31.28120000     -68.27610000
H      -46.29800000     -32.88370000     -68.18420000
C      -47.23470000     -32.60210000     -70.01300000
C      -48.30850000     -31.89580000     -70.52120000
C      -47.02060000     -33.90060000     -70.63250000
H      -48.58850000     -30.89310000     -70.25450000
C      -47.86550000     -34.01960000     -71.76650000
C      -46.16160000     -35.07600000     -70.48890000
C      -46.42580000     -36.02520000     -71.45320000
S      -49.01070000     -32.76340000     -71.91400000
S      -47.55910000     -35.53370000     -72.66860000
H      -45.88140000     -36.99220000     -71.45360000
