40
Properties=species:S:1:pos:R:3 #=T CELL(abcABC):=T 1.889726e+02=T 90.00000=T Traj:=T positionsangstrom=T Step:=T 0=T Bead:=T pbc="F F F"
C      -45.00610000     -35.23060000     -74.71680000
C      -44.58350000     -33.87520000     -74.47200000
C      -45.54720000     -32.86400000     -74.27480000
C      -46.95530000     -33.14420000     -74.33750000
C      -47.31850000     -34.47640000     -74.62940000
C      -46.36330000     -35.47650000     -74.87790000
H      -44.21910000     -35.89840000     -74.90140000
H      -45.27920000     -31.83570000     -74.14530000
H      -48.37190000     -34.65550000     -74.82200000
H      -46.83500000     -36.43990000     -75.04820000
C      -47.97900000     -32.08110000     -74.16620000
H      -48.88790000     -32.51510000     -73.74700000
H      -48.30880000     -31.58100000     -75.09240000
C      -43.14670000     -33.55800000     -74.15530000
H      -42.51530000     -33.44330000     -75.06930000
H      -42.95190000     -32.56090000     -73.57060000
S      -47.48910000     -30.56780000     -73.14930000
S      -42.10270000     -34.89260000     -73.27520000
C      -47.41840000     -31.20260000     -71.40550000
H      -47.62590000     -30.34100000     -70.84690000
H      -48.20370000     -31.97540000     -71.31380000
C      -42.84630000     -34.96610000     -71.57290000
H      -42.19850000     -35.64710000     -71.06960000
H      -43.82040000     -35.39290000     -71.56490000
C      -42.97650000     -33.66370000     -70.81340000
H      -42.03780000     -33.12460000     -70.67830000
H      -43.62550000     -32.95830000     -71.35300000
C      -46.01600000     -31.83260000     -71.01880000
H      -45.19750000     -31.06200000     -71.08950000
H      -45.68310000     -32.61380000     -71.67050000
C      -46.08770000     -32.41460000     -69.64650000
C      -47.10820000     -32.11700000     -68.79710000
C      -45.06180000     -33.20850000     -69.03450000
H      -48.06540000     -31.71990000     -69.13570000
C      -45.41590000     -33.63980000     -67.75740000
C      -43.71310000     -33.74570000     -69.43420000
C      -43.17470000     -34.53740000     -68.46430000
S      -46.95740000     -33.00210000     -67.24320000
S      -44.22150000     -34.69750000     -67.07530000
H      -42.09290000     -34.90030000     -68.46040000
