40
Properties=species:S:1:pos:R:3 #=T CELL(abcABC):=T 1.889726e+02=T 90.00000=T Traj:=T positionsangstrom=T Step:=T 0=T Bead:=T pbc="F F F"
C      -41.88640000     -33.28560000     -73.00730000
C      -43.14910000     -33.66290000     -72.61100000
C      -44.06850000     -32.66550000     -72.24400000
C      -43.76120000     -31.29510000     -72.18110000
C      -42.42110000     -30.98710000     -72.45130000
C      -41.47410000     -31.94150000     -72.82690000
H      -41.13390000     -34.05020000     -73.40750000
H      -45.07450000     -33.03990000     -71.92410000
H      -42.11680000     -29.94480000     -72.29110000
H      -40.56140000     -31.64700000     -73.15260000
C      -44.77320000     -30.23650000     -71.77510000
H      -45.71280000     -30.47160000     -72.08240000
H      -44.36710000     -29.31380000     -72.20770000
C      -43.63680000     -35.08210000     -72.71420000
H      -44.73830000     -35.13420000     -72.83280000
H      -43.12990000     -35.50080000     -73.63280000
S      -44.91670000     -29.92990000     -69.96390000
S      -43.09310000     -36.11430000     -71.31310000
C      -44.94520000     -31.67400000     -69.27250000
H      -44.45400000     -32.34040000     -69.97070000
H      -44.23360000     -31.71790000     -68.40830000
C      -43.85560000     -35.30970000     -69.77770000
H      -43.79970000     -34.30730000     -70.03540000
H      -43.11130000     -35.55620000     -69.03150000
C      -45.26070000     -35.63230000     -69.39490000
H      -45.31090000     -36.66930000     -69.00570000
H      -45.53240000     -35.05140000     -68.52950000
C      -46.27650000     -32.30260000     -68.81250000
H      -46.95600000     -31.53380000     -68.33830000
H      -46.09400000     -33.03610000     -68.07850000
C      -47.10380000     -32.79190000     -69.93390000
C      -47.99820000     -31.99810000     -70.56820000
C      -47.01550000     -34.08160000     -70.64380000
H      -48.34830000     -31.09600000     -70.08280000
C      -47.70780000     -34.12080000     -71.82710000
C      -46.32530000     -35.35720000     -70.46590000
C      -46.66050000     -36.27760000     -71.41360000
S      -48.76520000     -32.74960000     -72.01130000
S      -47.61410000     -35.64630000     -72.73340000
H      -46.21180000     -37.23390000     -71.49760000
