40
Properties=species:S:1:pos:R:3 #=T CELL(abcABC):=T 1.889726e+02=T 90.00000=T Traj:=T positionsangstrom=T Step:=T 0=T Bead:=T pbc="F F F"
C      -43.46640000     -34.27460000     -74.51140000
C      -44.71420000     -34.86880000     -74.25870000
C      -45.85170000     -33.99840000     -74.41260000
C      -45.65400000     -32.61670000     -74.56310000
C      -44.37040000     -32.06040000     -74.65570000
C      -43.26570000     -32.89670000     -74.76560000
H      -42.64820000     -34.95640000     -74.67880000
H      -46.89920000     -34.46820000     -74.34480000
H      -44.35450000     -30.93180000     -74.85760000
H      -42.26030000     -32.60130000     -75.10190000
C      -46.83640000     -31.70080000     -74.53470000
H      -47.44680000     -32.01580000     -75.41540000
H      -46.57940000     -30.66990000     -74.61410000
C      -44.79650000     -36.32740000     -74.23930000
H      -45.40200000     -36.81530000     -75.08070000
H      -43.83660000     -36.87540000     -74.21030000
S      -47.97970000     -31.98650000     -73.08420000
S      -45.53480000     -36.98440000     -72.64440000
C      -46.64940000     -31.77070000     -71.81100000
H      -45.83320000     -32.44700000     -71.97470000
H      -46.17260000     -30.77060000     -71.86590000
C      -44.66430000     -36.12060000     -71.34500000
H      -43.64120000     -36.04330000     -71.64650000
H      -44.64860000     -36.79840000     -70.50550000
C      -45.25490000     -34.71950000     -71.00490000
H      -44.95830000     -33.92900000     -71.69060000
H      -46.34960000     -34.84780000     -71.01150000
C      -47.28940000     -31.94600000     -70.47350000
H      -47.84550000     -32.94110000     -70.51250000
H      -48.07190000     -31.09520000     -70.32890000
C      -46.40980000     -32.02940000     -69.30710000
C      -46.40350000     -31.01830000     -68.38600000
C      -45.33680000     -32.93740000     -69.07300000
H      -47.19180000     -30.18500000     -68.38920000
C      -44.58290000     -32.54930000     -67.94610000
C      -44.74630000     -34.10790000     -69.70210000
C      -43.70090000     -34.58220000     -68.93970000
S      -45.04730000     -31.03780000     -67.26900000
S      -43.19190000     -33.55670000     -67.55630000
H      -42.97740000     -35.35500000     -69.13660000
