40
Properties=species:S:1:pos:R:3 #=T CELL(abcABC):=T 1.889726e+02=T 90.00000=T Traj:=T positionsangstrom=T Step:=T 0=T Bead:=T pbc="F F F"
C      -41.91900000     -33.20460000     -72.87360000
C      -43.18860000     -33.56730000     -72.59360000
C      -44.14060000     -32.57360000     -72.37550000
C      -43.78090000     -31.25160000     -72.10800000
C      -42.45250000     -30.89950000     -72.28820000
C      -41.53380000     -31.83670000     -72.71710000
H      -41.24070000     -33.98040000     -73.22880000
H      -45.17470000     -32.76350000     -72.21900000
H      -42.13870000     -29.88780000     -72.14650000
H      -40.51650000     -31.56170000     -72.83270000
C      -44.82850000     -30.27540000     -71.72390000
H      -45.84280000     -30.43650000     -72.17030000
H      -44.58810000     -29.23830000     -72.06730000
C      -43.62450000     -34.99060000     -72.77700000
H      -44.65360000     -34.99930000     -72.83900000
H      -43.16490000     -35.41220000     -73.70400000
S      -45.02890000     -30.10530000     -69.85490000
S      -43.10670000     -36.12230000     -71.43790000
C      -44.89910000     -31.73630000     -68.92020000
H      -44.38330000     -32.36090000     -69.57400000
H      -44.49320000     -31.60070000     -67.86860000
C      -43.79930000     -35.23120000     -69.92450000
H      -43.74650000     -34.11180000     -70.02590000
H      -43.06780000     -35.53540000     -69.14590000
C      -45.17080000     -35.73850000     -69.51500000
H      -45.11730000     -36.83500000     -69.58750000
H      -45.46080000     -35.45590000     -68.49160000
C      -46.30210000     -32.53000000     -68.74980000
H      -46.92590000     -31.98170000     -68.05070000
H      -45.93950000     -33.46170000     -68.31350000
C      -46.96840000     -32.77460000     -70.07030000
C      -47.67670000     -31.87010000     -70.79400000
C      -46.97280000     -34.06470000     -70.70190000
H      -47.78800000     -30.74930000     -70.66700000
C      -47.81810000     -34.14650000     -71.80680000
C      -46.27410000     -35.37350000     -70.52520000
C      -46.61320000     -36.30870000     -71.48190000
S      -48.43980000     -32.59560000     -72.20350000
S      -47.95780000     -35.73830000     -72.51590000
H      -46.30790000     -37.32450000     -71.57930000
