40
Properties=species:S:1:pos:R:3 #=T CELL(abcABC):=T 1.889726e+02=T 90.00000=T Traj:=T positionsangstrom=T Step:=T 0=T Bead:=T pbc="F F F"
C      -41.66570000     -33.39410000     -72.92730000
C      -42.88940000     -33.99370000     -72.71110000
C      -43.98680000     -33.18360000     -72.55660000
C      -43.90790000     -31.80810000     -72.46130000
C      -42.62470000     -31.23180000     -72.56250000
C      -41.48750000     -32.02690000     -72.85860000
H      -40.72210000     -33.98440000     -73.11470000
H      -44.96510000     -33.69250000     -72.34370000
H      -42.55120000     -30.12450000     -72.46420000
H      -40.52350000     -31.66590000     -72.98270000
C      -45.16460000     -31.00640000     -72.26100000
H      -46.01110000     -31.68090000     -72.20620000
H      -45.32580000     -30.27590000     -73.03020000
C      -42.99050000     -35.49160000     -72.62220000
H      -43.96990000     -35.82610000     -72.98630000
H      -42.20270000     -36.03110000     -73.13120000
S      -45.26840000     -29.96600000     -70.74300000
S      -42.99240000     -36.21870000     -70.88190000
C      -44.95410000     -31.26170000     -69.41150000
H      -44.14890000     -31.93410000     -69.84340000
H      -44.54410000     -30.64330000     -68.63050000
C      -43.65560000     -35.04820000     -69.65330000
H      -43.54190000     -33.98590000     -69.96250000
H      -43.06700000     -35.12630000     -68.76300000
C      -45.11250000     -35.39210000     -69.26890000
H      -45.18300000     -36.43900000     -69.00020000
H      -45.22200000     -34.86740000     -68.36780000
C      -46.21050000     -31.91090000     -68.92930000
H      -46.80710000     -31.10710000     -68.38910000
H      -45.99030000     -32.60040000     -68.06560000
C      -47.13110000     -32.62020000     -69.83720000
C      -48.16670000     -31.86320000     -70.34910000
C      -46.97230000     -33.91880000     -70.51400000
H      -48.45360000     -30.90250000     -69.97020000
C      -47.87300000     -34.00180000     -71.54410000
C      -46.16660000     -35.09890000     -70.33690000
C      -46.45750000     -36.01800000     -71.38310000
S      -48.89640000     -32.58110000     -71.72890000
S      -47.61830000     -35.45410000     -72.55850000
H      -46.12250000     -36.99180000     -71.56160000
