40
Properties=species:S:1:pos:R:3 #=T CELL(abcABC):=T 1.889726e+02=T 90.00000=T Traj:=T positionsangstrom=T Step:=T 0=T Bead:=T pbc="F F F"
C      -41.76530000     -33.37640000     -72.66190000
C      -43.00200000     -33.93600000     -72.47200000
C      -44.07240000     -33.08300000     -72.28740000
C      -44.00380000     -31.69360000     -72.55190000
C      -42.71020000     -31.18820000     -72.78240000
C      -41.56710000     -31.99150000     -72.71650000
H      -40.87400000     -34.05880000     -72.67390000
H      -45.07970000     -33.60050000     -72.14010000
H      -42.53740000     -30.16920000     -72.91080000
H      -40.58530000     -31.63920000     -72.70280000
C      -45.23760000     -30.86360000     -72.39550000
H      -46.11370000     -31.54840000     -72.39350000
H      -45.29900000     -30.03280000     -73.14820000
C      -43.13620000     -35.45670000     -72.50640000
H      -43.99280000     -35.80210000     -73.03580000
H      -42.32780000     -35.78820000     -73.16020000
S      -45.14590000     -29.95350000     -70.74180000
S      -42.94590000     -36.34320000     -70.83510000
C      -44.81250000     -31.35280000     -69.59100000
H      -44.14460000     -32.03100000     -70.12320000
H      -44.19580000     -31.05050000     -68.77400000
C      -43.69250000     -35.11240000     -69.61190000
H      -43.63900000     -34.06090000     -70.01590000
H      -43.09380000     -35.04390000     -68.70650000
C      -45.14910000     -35.32910000     -69.34900000
H      -45.34350000     -36.38010000     -69.18450000
H      -45.52600000     -34.67360000     -68.46730000
C      -46.06510000     -32.04080000     -68.96250000
H      -46.56620000     -31.31390000     -68.34210000
H      -45.74950000     -32.90340000     -68.40600000
C      -46.97690000     -32.55800000     -70.02160000
C      -48.09650000     -31.82480000     -70.44530000
C      -46.91380000     -33.86010000     -70.63320000
H      -48.35690000     -30.88580000     -70.05200000
C      -47.80470000     -33.93610000     -71.72310000
C      -46.06090000     -35.01560000     -70.49540000
C      -46.33330000     -36.00010000     -71.47780000
S      -48.99920000     -32.71060000     -71.58720000
S      -47.68980000     -35.45190000     -72.53290000
H      -45.96360000     -37.04540000     -71.50130000
