40
Properties=species:S:1:pos:R:3 #=T CELL(abcABC):=T 1.889726e+02=T 90.00000=T Traj:=T positionsangstrom=T Step:=T 0=T Bead:=T pbc="F F F"
C      -41.54890000     -33.33340000     -72.52110000
C      -42.88110000     -33.82440000     -72.55780000
C      -43.97320000     -32.96840000     -72.61350000
C      -43.75030000     -31.55120000     -72.57690000
C      -42.44140000     -31.06110000     -72.82040000
C      -41.37140000     -31.95770000     -72.75470000
H      -40.77900000     -34.04910000     -72.49750000
H      -44.96300000     -33.47470000     -72.44410000
H      -42.25780000     -30.05000000     -72.97010000
H      -40.37880000     -31.50920000     -72.79410000
C      -44.88640000     -30.53220000     -72.53430000
H      -45.85680000     -30.95420000     -72.91160000
H      -44.59000000     -29.67390000     -73.04280000
C      -43.24350000     -35.29140000     -72.49020000
H      -44.27210000     -35.56900000     -72.82560000
H      -42.62040000     -35.75940000     -73.25580000
S      -45.23620000     -29.85570000     -70.81580000
S      -43.18670000     -36.06950000     -70.83400000
C      -44.84550000     -31.29820000     -69.76400000
H      -44.27620000     -31.97850000     -70.40880000
H      -44.09670000     -30.93990000     -68.97250000
C      -43.69290000     -34.85980000     -69.60460000
H      -43.66200000     -33.84790000     -69.98860000
H      -42.99640000     -34.99330000     -68.81200000
C      -45.15520000     -35.27540000     -69.15040000
H      -45.17850000     -36.39270000     -68.98690000
H      -45.43250000     -34.92770000     -68.07440000
C      -46.14630000     -31.90840000     -69.15680000
H      -46.67720000     -31.15380000     -68.62970000
H      -45.79800000     -32.60800000     -68.33640000
C      -46.98200000     -32.61370000     -70.12480000
C      -47.96040000     -31.91340000     -70.81870000
C      -47.01490000     -34.00040000     -70.51270000
H      -48.35200000     -30.90920000     -70.68380000
C      -47.99090000     -34.31310000     -71.52290000
C      -46.18000000     -35.13110000     -70.19070000
C      -46.51830000     -36.23100000     -70.97190000
S      -48.88480000     -32.85790000     -71.88840000
S      -47.80280000     -35.94400000     -72.13690000
H      -46.45320000     -37.32210000     -70.78130000
