40
Properties=species:S:1:pos:R:3 #=T CELL(abcABC):=T 1.889726e+02=T 90.00000=T Traj:=T positionsangstrom=T Step:=T 0=T Bead:=T pbc="F F F"
C      -41.64380000     -33.39810000     -72.80210000
C      -42.91330000     -34.03520000     -72.77200000
C      -44.03190000     -33.25440000     -72.55720000
C      -43.94630000     -31.90540000     -72.41870000
C      -42.71650000     -31.31070000     -72.56970000
C      -41.57340000     -32.04220000     -72.90210000
H      -40.70490000     -33.96350000     -72.88000000
H      -44.96940000     -33.67910000     -72.53250000
H      -42.69950000     -30.20290000     -72.44140000
H      -40.64650000     -31.48210000     -73.01990000
C      -45.11500000     -30.98500000     -72.15520000
H      -45.97920000     -31.52890000     -72.40720000
H      -45.04230000     -30.21000000     -72.90930000
C      -43.12150000     -35.50640000     -72.72770000
H      -44.19240000     -35.68800000     -73.02550000
H      -42.50780000     -36.21510000     -73.31620000
S      -45.25560000     -30.17020000     -70.52180000
S      -42.87530000     -36.14090000     -71.02920000
C      -45.03770000     -31.41400000     -69.27790000
H      -44.40750000     -32.21760000     -69.59540000
H      -44.48530000     -30.88990000     -68.49460000
C      -43.60000000     -34.89020000     -69.97810000
H      -43.65660000     -33.96060000     -70.52780000
H      -42.92820000     -34.80690000     -69.09550000
C      -44.98130000     -35.26630000     -69.35540000
H      -45.03400000     -36.36490000     -69.04240000
H      -45.05820000     -34.79440000     -68.42290000
C      -46.33400000     -32.02020000     -68.74570000
H      -46.87420000     -31.24990000     -68.25280000
H      -46.12490000     -32.75070000     -68.02230000
C      -47.21590000     -32.53430000     -69.83950000
C      -48.15300000     -31.76630000     -70.47560000
C      -47.01120000     -33.81850000     -70.53000000
H      -48.31460000     -30.69630000     -70.18720000
C      -47.87290000     -33.99140000     -71.57280000
C      -46.19000000     -35.00980000     -70.27980000
C      -46.39520000     -35.96340000     -71.27310000
S      -48.83590000     -32.54030000     -71.86030000
S      -47.64100000     -35.43890000     -72.45790000
H      -45.86560000     -36.83120000     -71.48010000
