40
Properties=species:S:1:pos:R:3 #=T CELL(abcABC):=T 1.889726e+02=T 90.00000=T Traj:=T positionsangstrom=T Step:=T 0=T Bead:=T pbc="F F F"
C      -41.99090000     -33.74370000     -72.74160000
C      -43.35830000     -34.00690000     -72.50340000
C      -44.30290000     -32.94450000     -72.33760000
C      -43.81690000     -31.61570000     -72.40230000
C      -42.45160000     -31.36630000     -72.56680000
C      -41.55260000     -32.42840000     -72.75100000
H      -41.33220000     -34.57110000     -73.03820000
H      -45.34110000     -33.09870000     -72.10620000
H      -42.08010000     -30.29630000     -72.56130000
H      -40.44700000     -32.30510000     -72.82800000
C      -44.75690000     -30.46640000     -72.51120000
H      -45.65580000     -30.79440000     -73.01340000
H      -44.30810000     -29.70750000     -73.20390000
C      -43.80660000     -35.46610000     -72.34820000
H      -44.90660000     -35.45420000     -72.42370000
H      -43.41510000     -36.13930000     -73.02100000
S      -45.16690000     -29.62970000     -70.95220000
S      -43.15240000     -36.20580000     -70.78270000
C      -44.96230000     -30.99550000     -69.65820000
H      -44.32390000     -31.72250000     -70.08470000
H      -44.41820000     -30.74120000     -68.72320000
C      -43.57460000     -34.93320000     -69.61150000
H      -43.40640000     -33.99050000     -70.09780000
H      -42.93890000     -35.15310000     -68.75380000
C      -45.00430000     -35.05460000     -69.01400000
H      -44.96990000     -35.94600000     -68.32100000
H      -45.23450000     -34.29110000     -68.27310000
C      -46.24090000     -31.70420000     -69.24450000
H      -46.95640000     -31.00240000     -68.79080000
H      -46.04990000     -32.37940000     -68.39420000
C      -46.86650000     -32.44810000     -70.41780000
C      -47.79280000     -31.73320000     -71.14950000
C      -46.80450000     -33.91040000     -70.58450000
H      -48.00830000     -30.68960000     -71.06440000
C      -47.72260000     -34.24540000     -71.55850000
C      -46.12230000     -35.05110000     -70.08190000
C      -46.56790000     -36.20110000     -70.69550000
S      -48.51490000     -32.85590000     -72.29600000
S      -47.81460000     -35.96250000     -71.87810000
H      -46.27110000     -37.17690000     -70.33510000
