40
Properties=species:S:1:pos:R:3 #=T CELL(abcABC):=T 1.889726e+02=T 90.00000=T Traj:=T positionsangstrom=T Step:=T 0=T Bead:=T pbc="F F F"
C      -41.87380000     -33.71100000     -72.56480000
C      -43.28020000     -33.95270000     -72.55690000
C      -44.20360000     -32.88920000     -72.59730000
C      -43.69380000     -31.56320000     -72.64470000
C      -42.31980000     -31.32540000     -72.75740000
C      -41.42540000     -32.39180000     -72.67090000
H      -41.15520000     -34.60100000     -72.46790000
H      -45.22430000     -33.00230000     -72.59400000
H      -41.96850000     -30.27490000     -72.82470000
H      -40.38170000     -32.17620000     -72.82550000
C      -44.74360000     -30.46710000     -72.61330000
H      -45.70660000     -30.84320000     -72.86360000
H      -44.49050000     -29.55880000     -73.21700000
C      -43.72990000     -35.36440000     -72.43910000
H      -44.81630000     -35.39710000     -72.65110000
H      -43.25260000     -36.17030000     -73.10240000
S      -45.16390000     -29.70580000     -70.89010000
S      -43.06620000     -36.13050000     -70.80570000
C      -45.02290000     -31.10350000     -69.62380000
H      -44.28780000     -31.83230000     -70.08680000
H      -44.46830000     -30.58970000     -68.82390000
C      -43.76440000     -35.02760000     -69.41590000
H      -43.58140000     -34.03780000     -69.79340000
H      -43.10710000     -35.00680000     -68.57560000
C      -45.17090000     -35.20160000     -68.93220000
H      -45.23770000     -36.23760000     -68.46160000
H      -45.27410000     -34.31960000     -68.35640000
C      -46.21210000     -31.79320000     -69.15100000
H      -46.84780000     -31.12070000     -68.50730000
H      -45.74890000     -32.52350000     -68.56600000
C      -47.02790000     -32.42540000     -70.25170000
C      -47.94170000     -31.78570000     -71.06570000
C      -46.93110000     -33.87720000     -70.52160000
H      -48.05870000     -30.71620000     -71.09310000
C      -47.77060000     -34.25620000     -71.53860000
C      -46.24850000     -35.07370000     -69.98050000
C      -46.57820000     -36.18780000     -70.69580000
S      -48.65840000     -32.88730000     -72.20580000
S      -47.68630000     -35.89960000     -72.05110000
H      -45.91490000     -37.04790000     -70.70570000
