40
Properties=species:S:1:pos:R:3 #=T CELL(abcABC):=T 1.889726e+02=T 90.00000=T Traj:=T positionsangstrom=T Step:=T 0=T Bead:=T pbc="F F F"
C      -42.40010000     -35.57290000     -69.34990000
C      -43.58070000     -36.27790000     -69.63170000
C      -44.03140000     -36.39240000     -70.95780000
C      -43.29610000     -35.90500000     -72.06260000
C      -42.02190000     -35.30740000     -71.78460000
C      -41.61920000     -35.15340000     -70.46200000
H      -41.89880000     -35.48500000     -68.36780000
H      -45.00450000     -36.91500000     -71.21310000
H      -41.58150000     -34.78310000     -72.57660000
H      -40.73200000     -34.64910000     -70.18480000
C      -43.90770000     -35.98740000     -73.54300000
H      -44.96160000     -35.98820000     -73.60710000
H      -43.54980000     -36.83960000     -74.14910000
C      -44.51160000     -36.58230000     -68.52220000
H      -44.50170000     -37.70860000     -68.29890000
H      -44.11670000     -36.05160000     -67.56000000
S      -43.47480000     -34.45650000     -74.51920000
S      -46.22140000     -36.13870000     -68.83790000
C      -44.67430000     -33.31910000     -73.79960000
H      -44.83350000     -32.56330000     -74.52780000
H      -45.52720000     -33.94580000     -73.61120000
C      -45.90280000     -34.36740000     -69.36130000
H      -44.84870000     -34.32630000     -69.73210000
H      -45.86790000     -33.83150000     -68.38380000
C      -46.83870000     -33.90370000     -70.51540000
H      -46.25480000     -33.96820000     -71.43490000
H      -47.73010000     -34.50390000     -70.65860000
C      -44.39710000     -32.51520000     -72.45300000
H      -43.35300000     -32.08040000     -72.52600000
H      -44.27780000     -33.19840000     -71.64780000
C      -45.38090000     -31.40420000     -72.24760000
C      -45.25600000     -30.20990000     -72.92670000
C      -46.55500000     -31.43080000     -71.39560000
H      -44.53580000     -30.00810000     -73.68380000
C      -47.25410000     -30.27620000     -71.45690000
C      -47.18640000     -32.41020000     -70.43530000
C      -48.30850000     -31.89980000     -69.78730000
S      -46.44760000     -29.03520000     -72.52700000
S      -48.64110000     -30.30400000     -70.38410000
H      -48.98480000     -32.43450000     -69.14750000
