40
Properties=species:S:1:pos:R:3 #=T CELL(abcABC):=T 1.889726e+02=T 90.00000=T Traj:=T positionsangstrom=T Step:=T 0=T Bead:=T pbc="F F F"
C      -41.75840000     -33.40720000     -72.59710000
C      -43.11620000     -33.79960000     -72.53010000
C      -44.12620000     -32.79990000     -72.56190000
C      -43.71780000     -31.46660000     -72.75750000
C      -42.35610000     -31.03600000     -72.66500000
C      -41.37370000     -32.03530000     -72.64610000
H      -41.07090000     -34.26070000     -72.44950000
H      -45.16260000     -32.96900000     -72.64290000
H      -42.08340000     -29.98340000     -72.68620000
H      -40.33020000     -31.66670000     -72.67630000
C      -44.81850000     -30.45890000     -72.68930000
H      -45.74190000     -30.82710000     -73.22620000
H      -44.57730000     -29.53340000     -73.23760000
C      -43.50040000     -35.24240000     -72.44480000
H      -44.50720000     -35.34090000     -72.68380000
H      -42.86700000     -35.83360000     -73.14660000
S      -45.06430000     -29.96990000     -70.94460000
S      -43.27810000     -36.10630000     -70.73640000
C      -44.81900000     -31.37180000     -69.78520000
H      -44.26400000     -32.20740000     -70.26120000
H      -44.23250000     -30.97110000     -69.04400000
C      -43.87420000     -34.83000000     -69.52110000
H      -43.95390000     -33.84620000     -70.06480000
H      -43.11060000     -34.80300000     -68.69350000
C      -45.27030000     -35.20160000     -69.02220000
H      -45.22710000     -36.17160000     -68.58730000
H      -45.63300000     -34.60660000     -68.17040000
C      -46.09280000     -31.85680000     -69.12070000
H      -46.61700000     -30.96610000     -68.81230000
H      -45.94480000     -32.55740000     -68.29180000
C      -47.00060000     -32.58580000     -70.09250000
C      -48.01060000     -31.91730000     -70.74600000
C      -46.92690000     -33.96000000     -70.56590000
H      -48.35860000     -30.89410000     -70.68090000
C      -47.76470000     -34.28930000     -71.59200000
C      -46.24600000     -35.16920000     -70.11580000
C      -46.52670000     -36.27220000     -70.88170000
S      -48.76700000     -32.92910000     -71.96540000
S      -47.69200000     -35.90000000     -72.16670000
H      -46.24790000     -37.35350000     -70.86320000
