40
Properties=species:S:1:pos:R:3 #=T CELL(abcABC):=T 1.889726e+02=T 90.00000=T Traj:=T positionsangstrom=T Step:=T 0=T Bead:=T pbc="F F F"
C      -42.57730000     -35.34130000     -69.53110000
C      -43.78880000     -35.90420000     -69.84070000
C      -44.09930000     -36.06490000     -71.18010000
C      -43.17990000     -35.66570000     -72.20940000
C      -41.87330000     -35.28140000     -71.84080000
C      -41.63990000     -35.06440000     -70.50110000
H      -42.26920000     -35.26340000     -68.47110000
H      -45.13430000     -36.43000000     -71.41410000
H      -41.14130000     -34.85840000     -72.61120000
H      -40.68740000     -34.64520000     -70.24760000
C      -43.59270000     -35.87720000     -73.61210000
H      -44.63960000     -36.18350000     -73.73780000
H      -42.96840000     -36.60370000     -74.18180000
C      -44.56630000     -36.55370000     -68.65270000
H      -44.39820000     -37.61390000     -68.90690000
H      -44.08770000     -36.35490000     -67.74200000
S      -43.43030000     -34.39950000     -74.70850000
S      -46.28480000     -36.12610000     -68.59360000
C      -44.81510000     -33.34850000     -74.10490000
H      -44.97800000     -32.63750000     -74.93530000
H      -45.68210000     -34.02120000     -73.98290000
C      -46.29430000     -34.42130000     -69.09060000
H      -45.20200000     -34.11000000     -69.14350000
H      -46.72250000     -33.87410000     -68.28140000
C      -46.97390000     -34.06880000     -70.39400000
H      -46.30980000     -34.50690000     -71.17240000
H      -47.90660000     -34.64330000     -70.39250000
C      -44.47550000     -32.68680000     -72.76110000
H      -43.46840000     -32.44800000     -72.65670000
H      -44.61820000     -33.45610000     -72.01480000
C      -45.40320000     -31.59800000     -72.36230000
C      -45.18110000     -30.31510000     -72.71680000
C      -46.64740000     -31.60180000     -71.50310000
H      -44.41090000     -29.98470000     -73.39660000
C      -47.18650000     -30.35860000     -71.35650000
C      -47.26480000     -32.59310000     -70.60480000
C      -48.29030000     -32.00940000     -69.91160000
S      -46.28010000     -29.10760000     -72.15340000
S      -48.48860000     -30.33130000     -70.22220000
H      -48.85220000     -32.60860000     -69.15720000
