40
Properties=species:S:1:pos:R:3 #=T CELL(abcABC):=T 1.889726e+02=T 90.00000=T Traj:=T positionsangstrom=T Step:=T 0=T Bead:=T pbc="F F F"
C      -42.43090000     -35.59800000     -69.45100000
C      -43.70840000     -36.09070000     -69.68410000
C      -44.02500000     -36.29470000     -71.10380000
C      -43.19860000     -35.76480000     -72.13730000
C      -41.97210000     -35.13730000     -71.77510000
C      -41.62130000     -35.09280000     -70.44520000
H      -42.13920000     -35.49010000     -68.38280000
H      -44.92890000     -36.75410000     -71.38250000
H      -41.18400000     -34.82110000     -72.43670000
H      -40.62800000     -34.61990000     -70.25500000
C      -43.61490000     -35.95240000     -73.53460000
H      -44.66740000     -36.29100000     -73.51080000
H      -43.01740000     -36.73130000     -73.92030000
C      -44.56820000     -36.63940000     -68.60570000
H      -44.71050000     -37.77320000     -68.63290000
H      -44.10000000     -36.32560000     -67.63330000
S      -43.34450000     -34.45780000     -74.63610000
S      -46.33940000     -36.06610000     -68.62770000
C      -44.70880000     -33.33300000     -74.09240000
H      -44.75190000     -32.49690000     -74.78480000
H      -45.65150000     -33.87300000     -74.12640000
C      -46.25640000     -34.23540000     -69.13400000
H      -45.23660000     -33.89640000     -69.04130000
H      -46.74300000     -33.68200000     -68.30360000
C      -46.87150000     -34.01480000     -70.46180000
H      -46.13460000     -34.17530000     -71.26330000
H      -47.70030000     -34.69960000     -70.72720000
C      -44.51740000     -32.63260000     -72.71450000
H      -43.55020000     -32.11340000     -72.84500000
H      -44.39570000     -33.34400000     -71.85210000
C      -45.47790000     -31.55640000     -72.37900000
C      -45.20630000     -30.32080000     -72.88310000
C      -46.56770000     -31.55030000     -71.42230000
H      -44.31990000     -30.09490000     -73.57650000
C      -47.20180000     -30.30540000     -71.32370000
C      -47.25340000     -32.49590000     -70.61950000
C      -48.36940000     -31.96990000     -69.93970000
S      -46.30560000     -29.06750000     -72.28130000
S      -48.61790000     -30.30090000     -70.31940000
H      -49.01470000     -32.61500000     -69.39220000
