40
Properties=species:S:1:pos:R:3 #=T CELL(abcABC):=T 1.889726e+02=T 90.00000=T Traj:=T positionsangstrom=T Step:=T 0=T Bead:=T pbc="F F F"
C      -41.75530000     -33.54930000     -72.75870000
C      -43.09450000     -33.99760000     -72.70690000
C      -44.18890000     -33.09100000     -72.72260000
C      -43.88750000     -31.70120000     -72.77420000
C      -42.53390000     -31.25960000     -72.82100000
C      -41.49320000     -32.16770000     -72.75490000
H      -40.96870000     -34.25290000     -72.72290000
H      -45.18670000     -33.53320000     -72.45090000
H      -42.27780000     -30.20360000     -72.72830000
H      -40.45860000     -31.88670000     -72.89470000
C      -44.98870000     -30.72330000     -72.65840000
H      -45.96190000     -31.23010000     -72.80340000
H      -44.97020000     -29.92380000     -73.38880000
C      -43.47840000     -35.42820000     -72.58350000
H      -44.43390000     -35.67370000     -73.02150000
H      -42.74900000     -35.94730000     -73.20050000
S      -44.86920000     -29.87600000     -70.99850000
S      -43.46780000     -36.16140000     -70.79130000
C      -44.87010000     -31.17200000     -69.75080000
H      -44.25000000     -32.07180000     -70.03230000
H      -44.22300000     -30.67820000     -69.00190000
C      -43.72690000     -34.64850000     -69.60450000
H      -43.58150000     -33.78400000     -70.20030000
H      -42.90190000     -34.62280000     -68.88860000
C      -45.02620000     -34.77520000     -68.80270000
H      -44.94210000     -35.73260000     -68.27330000
H      -45.14700000     -33.84350000     -68.26470000
C      -46.26850000     -31.53690000     -69.22820000
H      -46.82500000     -30.59320000     -69.10170000
H      -46.25550000     -31.99700000     -68.21560000
C      -47.04280000     -32.44760000     -70.21980000
C      -47.84770000     -31.82800000     -71.14770000
C      -46.91540000     -33.85850000     -70.40210000
H      -47.99010000     -30.74030000     -71.09870000
C      -47.82680000     -34.28180000     -71.39130000
C      -46.24390000     -34.93980000     -69.78110000
C      -46.60370000     -36.13420000     -70.36010000
S      -48.47350000     -32.98540000     -72.29870000
S      -47.83090000     -35.97630000     -71.66920000
H      -46.02120000     -36.98610000     -70.10020000
