40
Properties=species:S:1:pos:R:3 #=T CELL(abcABC):=T 1.889726e+02=T 90.00000=T Traj:=T positionsangstrom=T Step:=T 0=T Bead:=T pbc="F F F"
C      -48.94490000     -35.60960000     -71.83160000
C      -48.66190000     -34.38040000     -71.33740000
C      -48.11130000     -33.44770000     -72.22710000
C      -47.96530000     -33.69980000     -73.58680000
C      -48.55840000     -34.82400000     -74.10700000
C      -48.89790000     -35.82250000     -73.18780000
H      -49.35710000     -36.41520000     -71.15460000
H      -47.85290000     -32.50730000     -71.69570000
H      -48.59780000     -35.10970000     -75.18200000
H      -49.09210000     -36.90350000     -73.49220000
C      -47.58330000     -32.65880000     -74.58510000
H      -48.45850000     -32.21010000     -75.05650000
H      -46.98260000     -33.18910000     -75.23460000
C      -48.79440000     -34.06560000     -69.89020000
H      -49.84740000     -33.99550000     -69.60020000
H      -48.39540000     -35.00210000     -69.31010000
S      -46.52220000     -31.30880000     -73.88710000
S      -47.92120000     -32.61830000     -69.15070000
C      -44.76600000     -32.02640000     -73.50050000
H      -44.74310000     -33.12930000     -73.44360000
H      -44.05230000     -31.73750000     -74.24840000
C      -46.18400000     -33.30070000     -68.85330000
H      -46.19890000     -33.88000000     -67.91110000
H      -45.60340000     -32.37450000     -68.70950000
C      -45.59600000     -34.10170000     -70.03910000
H      -46.13710000     -35.04350000     -70.27100000
H      -45.79480000     -33.52740000     -70.97310000
C      -44.37190000     -31.47520000     -72.08640000
H      -45.26240000     -31.63590000     -71.40570000
H      -44.29330000     -30.43020000     -72.24170000
C      -43.10870000     -32.09260000     -71.37070000
C      -41.86200000     -31.64620000     -71.58700000
C      -43.06350000     -33.22700000     -70.47570000
H      -41.70230000     -30.83270000     -72.26190000
C      -41.75500000     -33.65400000     -70.15460000
C      -44.05970000     -34.17640000     -69.98690000
C      -43.48500000     -35.24130000     -69.38480000
S      -40.56740000     -32.54010000     -70.71410000
S      -41.72760000     -35.24690000     -69.40010000
H      -43.98110000     -36.03350000     -68.89170000
