40
Properties=species:S:1:pos:R:3 #=T CELL(abcABC):=T 1.889726e+02=T 90.00000=T Traj:=T positionsangstrom=T Step:=T 0=T Bead:=T pbc="F F F"
C      -49.14290000     -32.39810000     -70.56540000
C      -48.09170000     -32.68690000     -69.65550000
C      -47.11390000     -31.74000000     -69.44040000
C      -47.14320000     -30.51990000     -70.09140000
C      -48.06050000     -30.26890000     -71.12100000
C      -49.03840000     -31.24120000     -71.38210000
H      -49.91530000     -33.14380000     -70.70510000
H      -46.33760000     -31.89030000     -68.69510000
H      -47.98240000     -29.34450000     -71.68820000
H      -49.72910000     -31.06930000     -72.19780000
C      -45.95850000     -29.55640000     -69.75890000
H      -45.49850000     -29.81250000     -68.80830000
H      -46.28160000     -28.48280000     -69.78470000
C      -48.14680000     -33.92750000     -68.74240000
H      -47.24450000     -33.88420000     -68.13310000
H      -49.02590000     -33.78900000     -68.11970000
S      -44.53510000     -29.68130000     -70.98110000
S      -48.15000000     -35.44710000     -69.62970000
C      -44.32380000     -31.31890000     -71.70400000
H      -45.13030000     -31.53560000     -72.46380000
H      -43.43630000     -31.18050000     -72.27810000
C      -46.44210000     -35.51900000     -70.45160000
H      -46.33330000     -36.59480000     -70.70240000
H      -45.73410000     -35.27810000     -69.76290000
C      -46.28360000     -34.70720000     -71.73100000
H      -47.19370000     -34.79990000     -72.39420000
H      -46.33810000     -33.66410000     -71.54280000
C      -43.90960000     -32.44010000     -70.63050000
H      -44.76290000     -32.86640000     -70.07040000
H      -43.24140000     -31.92790000     -69.89090000
C      -43.15130000     -33.51210000     -71.40720000
C      -41.76500000     -33.56990000     -71.42490000
C      -43.70390000     -34.46810000     -72.34270000
H      -41.11750000     -32.87130000     -70.90050000
C      -42.71190000     -35.18430000     -73.01280000
C      -45.03070000     -35.06150000     -72.45450000
C      -44.98810000     -36.05900000     -73.38080000
S      -41.11480000     -34.81990000     -72.48460000
S      -43.39200000     -36.45880000     -73.99710000
H      -45.71710000     -36.83380000     -73.57890000
