40
Properties=species:S:1:pos:R:3 #=T CELL(abcABC):=T 1.889726e+02=T 90.00000=T Traj:=T positionsangstrom=T Step:=T 0=T Bead:=T pbc="F F F"
C      -41.54650000     -33.28770000     -70.87700000
C      -42.82710000     -33.72280000     -71.23630000
C      -43.60800000     -32.95830000     -72.02810000
C      -43.13850000     -31.65910000     -72.46030000
C      -41.96380000     -31.16760000     -71.92170000
C      -41.13760000     -31.99560000     -71.21700000
H      -40.82990000     -33.98930000     -70.48960000
H      -44.53550000     -33.35920000     -72.44910000
H      -41.61100000     -30.09650000     -72.10250000
H      -40.24620000     -31.63930000     -70.70810000
C      -44.10170000     -30.85750000     -73.29960000
H      -44.41650000     -31.53270000     -74.06370000
H      -43.60000000     -29.99790000     -73.72600000
C      -43.30730000     -35.10000000     -70.89180000
H      -44.32630000     -35.24690000     -71.17960000
H      -42.77240000     -35.83680000     -71.46250000
S      -45.48490000     -29.97300000     -72.23560000
S      -43.28690000     -35.40520000     -69.07430000
C      -45.44140000     -31.02400000     -70.60160000
H      -44.73180000     -31.80890000     -70.81200000
H      -45.09700000     -30.35900000     -69.86940000
C      -44.56140000     -34.24240000     -68.52790000
H      -44.42320000     -33.17190000     -68.89140000
H      -44.42160000     -34.05130000     -67.50720000
C      -46.00920000     -34.62980000     -68.72980000
H      -46.28510000     -35.41220000     -68.10370000
H      -46.63310000     -33.83440000     -68.33970000
C      -46.85590000     -31.48530000     -70.27000000
H      -47.49410000     -30.59980000     -70.36280000
H      -46.98860000     -31.80190000     -69.23910000
C      -47.32380000     -32.56340000     -71.27120000
C      -48.05720000     -32.24420000     -72.36600000
C      -47.16030000     -33.97430000     -71.15970000
H      -48.39880000     -31.21400000     -72.56440000
C      -47.73330000     -34.69320000     -72.20360000
C      -46.55840000     -34.90190000     -70.15660000
C      -46.51120000     -36.19710000     -70.61070000
S      -48.52730000     -33.64260000     -73.27800000
S      -47.20360000     -36.37420000     -72.29470000
H      -46.14450000     -37.12060000     -70.18270000
