40
Properties=species:S:1:pos:R:3 #=T CELL(abcABC):=T 1.889726e+02=T 90.00000=T Traj:=T positionsangstrom=T Step:=T 0=T Bead:=T pbc="F F F"
C      -41.45370000     -33.14380000     -70.59670000
C      -42.61090000     -33.75510000     -71.09840000
C      -43.35920000     -33.06820000     -72.07390000
C      -43.09650000     -31.67410000     -72.40880000
C      -41.90480000     -31.13010000     -71.91510000
C      -41.13190000     -31.83770000     -70.98150000
H      -40.80030000     -33.57270000     -69.85260000
H      -44.27050000     -33.53680000     -72.45090000
H      -41.59210000     -30.10110000     -72.23830000
H      -40.20350000     -31.48670000     -70.48620000
C      -44.07190000     -30.87400000     -73.21350000
H      -44.28380000     -31.57880000     -74.09000000
H      -43.65030000     -30.06780000     -73.78280000
C      -42.96140000     -35.21550000     -70.75340000
H      -43.69860000     -35.64790000     -71.46640000
H      -41.99320000     -35.79730000     -70.87310000
S      -45.61390000     -30.18790000     -72.39320000
S      -43.39210000     -35.47110000     -68.99440000
C      -45.72060000     -30.79100000     -70.57390000
H      -44.87230000     -31.48520000     -70.44760000
H      -45.46340000     -29.88960000     -69.89680000
C      -44.66950000     -34.08100000     -68.61700000
H      -44.47220000     -33.28800000     -69.32410000
H      -44.54210000     -33.88060000     -67.54300000
C      -46.05480000     -34.59770000     -68.88350000
H      -46.18540000     -35.57780000     -68.34210000
H      -46.71050000     -33.83100000     -68.39790000
C      -47.05040000     -31.45820000     -70.25570000
H      -47.81010000     -30.70290000     -70.24660000
H      -46.97420000     -31.97320000     -69.24830000
C      -47.45260000     -32.54270000     -71.21610000
C      -48.37580000     -32.29440000     -72.18400000
C      -47.07610000     -33.95380000     -71.18580000
H      -48.56890000     -31.27350000     -72.30940000
C      -47.56890000     -34.62540000     -72.33020000
C      -46.47360000     -34.86170000     -70.26220000
C      -46.37400000     -36.15520000     -70.78980000
S      -48.48380000     -33.62980000     -73.36100000
S      -47.19830000     -36.35770000     -72.34490000
H      -46.16460000     -37.05820000     -70.18060000
