40
Properties=species:S:1:pos:R:3 #=T CELL(abcABC):=T 1.889726e+02=T 90.00000=T Traj:=T positionsangstrom=T Step:=T 0=T Bead:=T pbc="F F F"
C      -41.60760000     -33.66660000     -71.74950000
C      -42.94080000     -34.07060000     -72.07320000
C      -43.86460000     -33.18770000     -72.55190000
C      -43.48120000     -31.80090000     -72.69010000
C      -42.17410000     -31.42940000     -72.36150000
C      -41.29590000     -32.30070000     -71.81970000
H      -40.81670000     -34.32550000     -71.48080000
H      -44.89550000     -33.49750000     -72.76310000
H      -41.91830000     -30.32850000     -72.30580000
H      -40.31710000     -32.04310000     -71.50430000
C      -44.46210000     -30.72330000     -72.99860000
H      -45.42190000     -31.06280000     -73.38230000
H      -44.04660000     -29.85880000     -73.63580000
C      -43.35100000     -35.48320000     -71.74950000
H      -44.34120000     -35.67690000     -72.16970000
H      -42.67960000     -36.28530000     -71.99480000
S      -44.96600000     -29.79470000     -71.45610000
S      -43.52760000     -35.91560000     -69.87590000
C      -45.31140000     -31.05750000     -70.15590000
H      -44.80700000     -31.94290000     -70.49950000
H      -44.75740000     -30.79300000     -69.27350000
C      -44.03410000     -34.34290000     -69.10870000
H      -43.82790000     -33.55700000     -69.87830000
H      -43.36660000     -34.21490000     -68.21990000
C      -45.59810000     -34.20390000     -68.77460000
H      -45.78360000     -34.68660000     -67.87000000
H      -45.82620000     -33.11890000     -68.71250000
C      -46.75420000     -31.31720000     -69.93960000
H      -47.35420000     -30.47930000     -70.13410000
H      -46.89980000     -31.69300000     -68.97950000
C      -47.26510000     -32.36960000     -70.93120000
C      -47.76880000     -31.99360000     -72.15790000
C      -47.11960000     -33.76990000     -70.79740000
H      -47.99700000     -31.00680000     -72.41450000
C      -47.66780000     -34.47150000     -71.87220000
C      -46.48650000     -34.71950000     -69.88490000
C      -46.76620000     -36.02010000     -70.17890000
S      -48.30940000     -33.36550000     -73.09100000
S      -47.71190000     -36.22700000     -71.63480000
H      -46.24680000     -36.77170000     -69.64150000
