40
Properties=species:S:1:pos:R:3 #=T CELL(abcABC):=T 1.889726e+02=T 90.00000=T Traj:=T positionsangstrom=T Step:=T 0=T Bead:=T pbc="F F F"
C      -42.49890000     -35.93950000     -72.17840000
C      -43.80630000     -36.43710000     -72.06790000
C      -44.49990000     -36.39720000     -70.79510000
C      -43.89150000     -35.79380000     -69.68450000
C      -42.54560000     -35.28420000     -69.86410000
C      -41.85610000     -35.42180000     -71.06750000
H      -42.06030000     -36.02130000     -73.13100000
H      -45.54930000     -36.76270000     -70.54660000
H      -41.97070000     -34.96320000     -69.04680000
H      -40.84290000     -35.01360000     -71.02550000
C      -44.53270000     -35.73780000     -68.28650000
H      -44.00840000     -36.49390000     -67.70650000
H      -45.62170000     -36.08770000     -68.39960000
C      -44.56020000     -37.06330000     -73.24610000
H      -44.07340000     -37.89070000     -73.76650000
H      -45.53590000     -37.32370000     -72.82700000
S      -44.34220000     -34.15330000     -67.41670000
S      -44.73590000     -35.78760000     -74.54260000
C      -44.91340000     -32.75260000     -68.54420000
H      -45.15050000     -31.97880000     -67.84830000
H      -44.03170000     -32.40290000     -69.13420000
C      -45.69840000     -34.49340000     -73.55700000
H      -46.31640000     -34.93360000     -72.75310000
H      -46.33760000     -34.00720000     -74.36100000
C      -44.82800000     -33.39040000     -72.83530000
H      -44.34300000     -33.59960000     -71.89550000
H      -43.88340000     -33.17180000     -73.36770000
C      -46.06560000     -33.16550000     -69.51160000
H      -46.81780000     -33.69550000     -68.90000000
H      -45.70590000     -33.94800000     -70.15970000
C      -46.76670000     -31.97510000     -70.22370000
C      -47.54870000     -31.01320000     -69.60290000
C      -46.56470000     -31.62020000     -71.63820000
H      -47.67290000     -30.94270000     -68.53990000
C      -47.25860000     -30.45130000     -71.94200000
C      -45.63030000     -32.09650000     -72.77730000
C      -45.64240000     -31.12230000     -73.73320000
S      -48.08190000     -29.70820000     -70.57610000
S      -46.80420000     -29.78460000     -73.51060000
H      -45.08910000     -31.20220000     -74.68210000
