40
Properties=species:S:1:pos:R:3 #=T CELL(abcABC):=T 1.889726e+02=T 90.00000=T Traj:=T positionsangstrom=T Step:=T 0=T Bead:=T pbc="F F F"
C      -42.00850000     -35.08260000     -70.22230000
C      -43.22700000     -35.78020000     -70.24240000
C      -43.81720000     -36.02470000     -71.49180000
C      -43.24600000     -35.60810000     -72.70590000
C      -42.01370000     -34.87650000     -72.63200000
C      -41.42190000     -34.63280000     -71.39540000
H      -41.52650000     -34.97690000     -69.27980000
H      -44.72960000     -36.72550000     -71.38850000
H      -41.60930000     -34.66050000     -73.58980000
H      -40.49020000     -34.09070000     -71.30840000
C      -43.77820000     -35.79030000     -74.12180000
H      -44.66140000     -36.42840000     -74.12620000
H      -43.12970000     -36.42010000     -74.73890000
C      -43.77470000     -36.35740000     -68.94250000
H      -43.36990000     -37.42610000     -68.97150000
H      -43.28090000     -35.81880000     -68.08990000
S      -44.08760000     -34.16720000     -75.00060000
S      -45.64600000     -36.44980000     -68.80420000
C      -45.48890000     -33.31630000     -74.14940000
H      -45.94060000     -32.69640000     -74.91830000
H      -46.24480000     -34.09190000     -73.88590000
C      -46.02940000     -34.65780000     -68.64670000
H      -45.20080000     -34.20020000     -68.10870000
H      -46.88480000     -34.56030000     -68.04060000
C      -46.15340000     -34.02310000     -70.00690000
H      -45.13350000     -34.07440000     -70.47200000
H      -46.83510000     -34.70840000     -70.53020000
C      -44.96380000     -32.64960000     -72.88070000
H      -44.12700000     -31.98830000     -73.15810000
H      -44.55030000     -33.39290000     -72.19570000
C      -45.93980000     -31.62510000     -72.32340000
C      -46.18050000     -30.41730000     -73.00900000
C      -46.75240000     -31.71070000     -71.10510000
H      -45.78660000     -30.07370000     -73.97360000
C      -47.44870000     -30.55120000     -70.81180000
C      -46.74440000     -32.59120000     -69.97040000
C      -47.33720000     -32.03350000     -68.84020000
S      -47.34560000     -29.36180000     -72.14150000
S      -48.05800000     -30.41830000     -69.17080000
H      -47.35400000     -32.37380000     -67.73190000
