40
Properties=species:S:1:pos:R:3 #=T CELL(abcABC):=T 1.889726e+02=T 90.00000=T Traj:=T positionsangstrom=T Step:=T 0=T Bead:=T pbc="F F F"
C      -42.07050000     -35.61610000     -70.23460000
C      -43.26880000     -36.28960000     -70.33090000
C      -43.81970000     -36.36760000     -71.67860000
C      -43.17410000     -35.72670000     -72.74600000
C      -41.92400000     -34.99930000     -72.54150000
C      -41.41890000     -34.93580000     -71.30190000
H      -41.71410000     -35.39580000     -69.24980000
H      -44.80160000     -36.84840000     -71.77350000
H      -41.38470000     -34.76460000     -73.46800000
H      -40.36540000     -34.44050000     -71.26760000
C      -43.90380000     -35.97480000     -74.06940000
H      -44.73620000     -36.69680000     -74.00570000
H      -43.31360000     -36.47450000     -74.79860000
C      -43.98120000     -36.88750000     -69.09930000
H      -44.10460000     -37.93470000     -69.25530000
H      -43.28160000     -36.75270000     -68.29230000
S      -44.37830000     -34.34320000     -74.85530000
S      -45.57930000     -36.11450000     -68.55370000
C      -45.46670000     -33.28040000     -73.76760000
H      -46.21310000     -32.76050000     -74.40040000
H      -46.01300000     -34.03510000     -73.14580000
C      -45.52080000     -34.32500000     -69.08280000
H      -44.40870000     -34.14100000     -69.29800000
H      -45.79090000     -33.71610000     -68.23230000
C      -46.38410000     -33.97440000     -70.28550000
H      -45.73450000     -34.13070000     -71.16540000
H      -47.17560000     -34.66780000     -70.34940000
C      -44.66810000     -32.32600000     -72.87110000
H      -44.07650000     -31.74910000     -73.52390000
H      -44.04240000     -32.91840000     -72.23840000
C      -45.61870000     -31.28720000     -72.13720000
C      -45.83240000     -30.09110000     -72.79440000
C      -46.58930000     -31.46020000     -71.01170000
H      -45.27420000     -29.66240000     -73.55570000
C      -47.30300000     -30.30310000     -70.75580000
C      -46.95730000     -32.60560000     -70.21710000
C      -47.92240000     -32.20750000     -69.30570000
S      -46.91250000     -29.00390000     -71.88710000
S      -48.45300000     -30.54450000     -69.47460000
H      -48.48450000     -32.98310000     -68.76340000
