40
Properties=species:S:1:pos:R:3 #=T CELL(abcABC):=T 1.889726e+02=T 90.00000=T Traj:=T positionsangstrom=T Step:=T 0=T Bead:=T pbc="F F F"
C      -41.38700000     -31.55380000     -70.64300000
C      -42.32200000     -32.57270000     -70.41860000
C      -43.32120000     -32.70320000     -71.38860000
C      -43.52730000     -31.80000000     -72.46600000
C      -42.57290000     -30.77820000     -72.67110000
C      -41.54250000     -30.57840000     -71.67200000
H      -40.35180000     -31.50000000     -70.07920000
H      -44.09600000     -33.56520000     -71.26330000
H      -42.78550000     -29.85310000     -73.25370000
H      -40.69880000     -29.86280000     -71.85050000
C      -44.54650000     -31.96890000     -73.51480000
H      -44.91810000     -32.91660000     -73.65880000
H      -44.23840000     -31.46380000     -74.44640000
C      -42.16320000     -33.53680000     -69.25410000
H      -41.53930000     -34.32790000     -69.73380000
H      -41.58310000     -33.03510000     -68.43890000
S      -46.04890000     -30.90140000     -73.00000000
S      -43.53890000     -34.47470000     -68.53820000
C      -46.32610000     -31.20980000     -71.15280000
H      -45.49420000     -31.83240000     -70.89780000
H      -46.26320000     -30.16640000     -70.68470000
C      -44.93980000     -33.29570000     -68.50880000
H      -44.72030000     -32.50620000     -69.21630000
H      -45.18640000     -32.92070000     -67.53590000
C      -46.28100000     -34.05800000     -68.76500000
H      -46.33010000     -34.79180000     -67.98570000
H      -47.10900000     -33.37130000     -68.61430000
C      -47.68680000     -31.77500000     -71.00770000
H      -48.36990000     -31.11560000     -71.54810000
H      -48.09970000     -31.66470000     -69.96430000
C      -47.79860000     -33.14430000     -71.65550000
C      -48.23890000     -33.28120000     -72.97650000
C      -47.09870000     -34.33280000     -71.21300000
H      -48.73140000     -32.45890000     -73.54650000
C      -47.03170000     -35.33980000     -72.22910000
C      -46.44680000     -34.80670000     -70.00380000
C      -45.96450000     -36.08910000     -70.14870000
S      -47.95660000     -34.88670000     -73.65460000
S      -46.34980000     -36.80490000     -71.73830000
H      -45.68160000     -36.73940000     -69.45670000
