40
Properties=species:S:1:pos:R:3 #=T CELL(abcABC):=T 1.889726e+02=T 90.00000=T Traj:=T positionsangstrom=T Step:=T 0=T Bead:=T pbc="F F F"
C      -41.34950000     -32.41960000     -70.53250000
C      -42.29510000     -33.46980000     -70.75510000
C      -43.38020000     -33.24140000     -71.61470000
C      -43.43330000     -32.02450000     -72.32640000
C      -42.39270000     -31.07710000     -72.21950000
C      -41.35680000     -31.29450000     -71.32040000
H      -40.56980000     -32.63450000     -69.85050000
H      -44.06670000     -34.10790000     -71.68950000
H      -42.58100000     -30.26270000     -72.86860000
H      -40.50080000     -30.50990000     -71.23210000
C      -44.57540000     -31.57710000     -73.22040000
H      -45.32560000     -32.35760000     -73.46790000
H      -44.14350000     -31.13930000     -74.15540000
C      -42.17590000     -34.75570000     -70.01700000
H      -42.12710000     -35.52880000     -70.82390000
H      -41.26350000     -34.84720000     -69.48500000
S      -45.55400000     -30.20070000     -72.61720000
S      -43.57700000     -35.38440000     -68.88490000
C      -46.17710000     -30.64290000     -70.94680000
H      -45.48030000     -31.26080000     -70.36150000
H      -46.27690000     -29.59590000     -70.47300000
C      -44.45800000     -33.79820000     -68.69570000
H      -44.22080000     -33.22000000     -69.52720000
H      -44.22760000     -33.36310000     -67.71270000
C      -46.03230000     -33.88910000     -68.80290000
H      -46.41270000     -34.46060000     -67.91210000
H      -46.39490000     -32.86830000     -68.77230000
C      -47.52430000     -31.35880000     -70.87720000
H      -48.31770000     -30.76990000     -71.32160000
H      -47.71510000     -31.49830000     -69.76630000
C      -47.59300000     -32.68350000     -71.65960000
C      -48.13750000     -32.70190000     -72.91010000
C      -47.21560000     -34.01290000     -71.20920000
H      -48.40430000     -31.84770000     -73.49860000
C      -47.46580000     -34.95390000     -72.20160000
C      -46.58330000     -34.59570000     -70.03160000
C      -46.39700000     -35.92550000     -70.24380000
S      -48.13380000     -34.27330000     -73.66680000
S      -46.94540000     -36.52230000     -71.79190000
H      -45.89140000     -36.63490000     -69.55970000
