40
Properties=species:S:1:pos:R:3 #=T CELL(abcABC):=T 1.889726e+02=T 90.00000=T Traj:=T positionsangstrom=T Step:=T 0=T Bead:=T pbc="F F F"
C      -41.89030000     -35.36360000     -70.17300000
C      -43.15540000     -36.03000000     -70.25150000
C      -43.72500000     -36.19970000     -71.52010000
C      -43.13770000     -35.64890000     -72.71700000
C      -41.94810000     -34.98080000     -72.57190000
C      -41.36070000     -34.73800000     -71.28420000
H      -41.38680000     -35.39390000     -69.24040000
H      -44.70530000     -36.75250000     -71.58580000
H      -41.59880000     -34.44850000     -73.44800000
H      -40.51930000     -34.12270000     -71.24320000
C      -43.89590000     -35.80540000     -73.99360000
H      -44.94680000     -36.10280000     -73.76140000
H      -43.36310000     -36.37210000     -74.75160000
C      -43.72650000     -36.67550000     -69.04110000
H      -43.68440000     -37.69190000     -68.99480000
H      -43.15570000     -36.29050000     -68.15060000
S      -44.15350000     -34.25270000     -75.00300000
S      -45.50890000     -36.40390000     -68.78780000
C      -45.38340000     -33.34620000     -73.99820000
H      -45.86680000     -32.74700000     -74.86780000
H      -46.03260000     -34.09170000     -73.60480000
C      -45.91430000     -34.59180000     -68.58040000
H      -45.07800000     -34.04990000     -68.00610000
H      -46.81150000     -34.64100000     -68.01240000
C      -46.22530000     -33.97430000     -69.91300000
H      -45.41320000     -34.16510000     -70.60980000
H      -46.95700000     -34.61310000     -70.46200000
C      -44.88420000     -32.47820000     -72.82800000
H      -44.02970000     -31.97180000     -73.24500000
H      -44.49490000     -33.12080000     -72.04070000
C      -45.90930000     -31.49440000     -72.36820000
C      -46.29760000     -30.35500000     -73.02430000
C      -46.64960000     -31.52670000     -71.07980000
H      -45.87330000     -29.96390000     -74.01890000
C      -47.30490000     -30.36340000     -70.81700000
C      -46.85100000     -32.55440000     -69.95540000
C      -47.69430000     -32.01780000     -69.02760000
S      -47.34020000     -29.24990000     -72.18350000
S      -48.24440000     -30.32410000     -69.28800000
H      -47.87020000     -32.51100000     -68.05270000
