40
Properties=species:S:1:pos:R:3 #=T CELL(abcABC):=T 1.889726e+02=T 90.00000=T Traj:=T positionsangstrom=T Step:=T 0=T Bead:=T pbc="F F F"
C      -42.03460000     -34.88650000     -70.24310000
C      -43.19560000     -35.63480000     -70.23580000
C      -43.79860000     -35.89210000     -71.48410000
C      -43.24340000     -35.46270000     -72.68740000
C      -42.06350000     -34.68630000     -72.69220000
C      -41.45060000     -34.45330000     -71.46520000
H      -41.61340000     -34.50370000     -69.31760000
H      -44.81440000     -36.27690000     -71.49820000
H      -41.64780000     -34.24550000     -73.62490000
H      -40.48550000     -33.88460000     -71.32140000
C      -43.93220000     -35.78680000     -74.00270000
H      -44.92480000     -36.11930000     -73.74040000
H      -43.41000000     -36.58770000     -74.52260000
C      -43.82560000     -36.15460000     -68.97660000
H      -43.32320000     -37.12240000     -68.71550000
H      -43.64990000     -35.62990000     -68.13760000
S      -44.12060000     -34.33590000     -75.09380000
S      -45.60460000     -36.57150000     -68.75240000
C      -45.47650000     -33.44400000     -74.24250000
H      -46.05120000     -32.78030000     -74.83910000
H      -46.24460000     -34.18030000     -73.91090000
C      -46.38120000     -34.84140000     -68.79370000
H      -46.22600000     -34.41540000     -67.81010000
H      -47.52610000     -35.00180000     -68.90100000
C      -45.86250000     -33.90250000     -69.86850000
H      -44.82470000     -33.69730000     -69.70260000
H      -45.95950000     -34.30830000     -70.85610000
C      -44.98130000     -32.61860000     -73.00470000
H      -44.13660000     -31.98520000     -73.31350000
H      -44.53090000     -33.34420000     -72.34230000
C      -45.93160000     -31.63080000     -72.36730000
C      -46.48370000     -30.54630000     -73.07920000
C      -46.51220000     -31.64910000     -71.02980000
H      -46.25950000     -30.34680000     -74.07470000
C      -47.30850000     -30.49660000     -70.69490000
C      -46.52950000     -32.55880000     -69.93840000
C      -47.29840000     -32.10950000     -68.88920000
S      -47.35970000     -29.39680000     -72.06840000
S      -47.98380000     -30.50800000     -69.12820000
H      -47.59470000     -32.67390000     -67.88550000
