40
Properties=species:S:1:pos:R:3 #=T CELL(abcABC):=T 1.889726e+02=T 90.00000=T Traj:=T positionsangstrom=T Step:=T 0=T Bead:=T pbc="F F F"
C      -44.82770000     -34.69070000     -75.25150000
C      -44.80250000     -35.44080000     -74.10410000
C      -45.94300000     -35.66150000     -73.28240000
C      -47.17720000     -35.26720000     -73.78150000
C      -47.16910000     -34.42720000     -74.96160000
C      -46.05230000     -34.16350000     -75.68330000
H      -43.88680000     -34.66430000     -75.77670000
H      -45.76070000     -36.14720000     -72.30550000
H      -48.14500000     -34.15570000     -75.38790000
H      -46.11540000     -33.57820000     -76.63940000
C      -48.36500000     -35.47510000     -72.89080000
H      -48.20550000     -36.27380000     -72.17720000
H      -49.26220000     -35.77960000     -73.52110000
C      -43.49370000     -35.96500000     -73.58100000
H      -43.60710000     -36.77570000     -72.88220000
H      -42.91910000     -36.47940000     -74.39480000
S      -49.07360000     -33.99810000     -72.09210000
S      -42.27880000     -34.75440000     -72.99440000
C      -47.69750000     -33.05940000     -71.25260000
H      -47.05910000     -32.56010000     -72.01080000
H      -48.12440000     -32.21890000     -70.77080000
C      -43.09400000     -33.93890000     -71.62130000
H      -42.36030000     -33.84240000     -70.79560000
H      -43.72610000     -34.79500000     -71.21810000
C      -43.87360000     -32.62990000     -71.85530000
H      -43.31820000     -32.09250000     -72.65990000
H      -44.85150000     -32.87370000     -72.36560000
C      -46.78140000     -33.79980000     -70.24440000
H      -45.97630000     -34.34440000     -70.79390000
H      -47.32880000     -34.52100000     -69.69190000
C      -46.12490000     -32.86820000     -69.21900000
C      -46.47790000     -32.83080000     -67.90520000
C      -44.99370000     -32.01740000     -69.49770000
H      -47.23640000     -33.46690000     -67.54170000
C      -44.53910000     -31.42260000     -68.31830000
C      -44.01040000     -31.86240000     -70.59320000
C      -42.99280000     -31.01560000     -70.21980000
S      -45.56240000     -31.67170000     -66.89890000
S      -43.09000000     -30.52910000     -68.55560000
H      -42.17380000     -30.65530000     -70.87210000
