40
Properties=species:S:1:pos:R:3 #=T CELL(abcABC):=T 1.889726e+02=T 90.00000=T Traj:=T positionsangstrom=T Step:=T 0=T Bead:=T pbc="F F F"
C      -42.49850000     -30.38330000     -69.86620000
C      -42.56600000     -31.68520000     -70.39840000
C      -43.25790000     -31.85280000     -71.59970000
C      -43.89670000     -30.78580000     -72.26870000
C      -43.71210000     -29.41850000     -71.76020000
C      -42.98630000     -29.31570000     -70.59960000
H      -41.84650000     -30.26710000     -69.06760000
H      -43.16430000     -32.88160000     -72.03710000
H      -43.90570000     -28.44960000     -72.27050000
H      -42.62640000     -28.36360000     -70.36550000
C      -44.74940000     -30.95520000     -73.52810000
H      -44.56180000     -31.97250000     -73.91910000
H      -44.55890000     -30.31400000     -74.43060000
C      -41.97430000     -32.80970000     -69.49610000
H      -41.09190000     -33.14840000     -69.96270000
H      -41.72970000     -32.25610000     -68.54850000
S      -46.59160000     -30.81860000     -73.15270000
S      -43.17520000     -34.09870000     -69.22310000
C      -46.86800000     -31.28080000     -71.41270000
H      -45.85680000     -31.45690000     -70.99660000
H      -47.37680000     -30.56930000     -70.73930000
C      -44.78170000     -33.39810000     -68.99510000
H      -45.01250000     -32.66450000     -69.78830000
H      -44.63790000     -32.79940000     -68.04890000
C      -45.95290000     -34.38610000     -68.78310000
H      -45.63790000     -34.90330000     -67.81470000
H      -46.94680000     -33.88100000     -68.79950000
C      -47.67670000     -32.60070000     -71.28290000
H      -48.65470000     -32.42360000     -71.68580000
H      -47.72230000     -32.79870000     -70.12840000
C      -47.21150000     -33.84450000     -71.97530000
C      -47.60780000     -34.17280000     -73.24960000
C      -46.62310000     -34.99510000     -71.25490000
H      -48.15250000     -33.47220000     -73.99070000
C      -46.71320000     -36.10730000     -72.08750000
C      -46.21840000     -35.34440000     -69.92140000
C      -45.75660000     -36.64790000     -69.85330000
S      -47.21240000     -35.79760000     -73.75910000
S      -46.13010000     -37.54770000     -71.32370000
H      -45.56980000     -37.30030000     -68.96680000
