40
Properties=species:S:1:pos:R:3 #=T CELL(abcABC):=T 1.889726e+02=T 90.00000=T Traj:=T positionsangstrom=T Step:=T 0=T Bead:=T pbc="F F F"
C      -41.66630000     -31.22240000     -70.44880000
C      -42.32230000     -32.47490000     -70.46130000
C      -43.22690000     -32.77600000     -71.50860000
C      -43.60670000     -31.79880000     -72.42900000
C      -43.03940000     -30.49340000     -72.31990000
C      -41.95300000     -30.29120000     -71.43430000
H      -41.02760000     -31.13100000     -69.62680000
H      -43.85240000     -33.61040000     -71.50470000
H      -43.53270000     -29.66020000     -72.83640000
H      -41.63070000     -29.25920000     -71.29740000
C      -44.79650000     -32.07510000     -73.35430000
H      -45.09740000     -33.08080000     -73.17820000
H      -44.43420000     -32.00630000     -74.35480000
C      -41.95170000     -33.54350000     -69.52800000
H      -41.38640000     -34.33710000     -69.95850000
H      -41.14390000     -33.27140000     -68.82390000
S      -46.11190000     -30.75480000     -73.11520000
S      -43.33930000     -34.36120000     -68.64070000
C      -46.53140000     -30.92200000     -71.38760000
H      -45.59020000     -31.09340000     -70.73570000
H      -46.83130000     -29.97070000     -70.97780000
C      -44.87590000     -33.18390000     -68.72840000
H      -44.65770000     -32.67450000     -69.64870000
H      -44.85270000     -32.61770000     -67.78630000
C      -46.08810000     -34.08490000     -68.82650000
H      -46.05160000     -34.76280000     -67.98740000
H      -47.05210000     -33.60440000     -68.68590000
C      -47.66440000     -31.87250000     -71.04300000
H      -48.65370000     -31.56560000     -71.35090000
H      -47.61240000     -31.95110000     -69.95750000
C      -47.49650000     -33.24550000     -71.69840000
C      -48.06200000     -33.33820000     -72.94080000
C      -46.88920000     -34.48710000     -71.25650000
H      -48.75460000     -32.66130000     -73.43830000
C      -46.94540000     -35.48260000     -72.20640000
C      -46.18830000     -34.91690000     -70.04780000
C      -45.97530000     -36.27290000     -70.03170000
S      -47.97780000     -35.03470000     -73.61470000
S      -46.39260000     -37.04550000     -71.59650000
H      -45.34310000     -36.82830000     -69.33370000
