40
Properties=species:S:1:pos:R:3 #=T CELL(abcABC):=T 1.889726e+02=T 90.00000=T Traj:=T positionsangstrom=T Step:=T 0=T Bead:=T pbc="F F F"
C      -41.78050000     -31.11840000     -70.29940000
C      -42.28030000     -32.44190000     -70.43380000
C      -43.19730000     -32.71350000     -71.52600000
C      -43.67800000     -31.70480000     -72.37620000
C      -43.20520000     -30.35930000     -72.12000000
C      -42.27330000     -30.10750000     -71.13610000
H      -41.03560000     -30.84480000     -69.48240000
H      -43.51910000     -33.75710000     -71.57870000
H      -43.66440000     -29.62430000     -72.73680000
H      -41.87840000     -29.06670000     -70.98660000
C      -44.74860000     -31.86500000     -73.42310000
H      -45.21090000     -32.87130000     -73.36970000
H      -44.52920000     -31.60120000     -74.51210000
C      -41.88120000     -33.52380000     -69.53010000
H      -41.36520000     -34.27090000     -70.14260000
H      -41.27760000     -33.05000000     -68.80210000
S      -46.25830000     -30.79420000     -73.17350000
S      -43.17300000     -34.49740000     -68.70810000
C      -46.47360000     -30.99740000     -71.36420000
H      -45.60650000     -31.38350000     -70.87980000
H      -46.82580000     -29.98240000     -71.10380000
C      -44.62660000     -33.31080000     -68.71490000
H      -44.51790000     -32.56200000     -69.57830000
H      -44.65000000     -32.55830000     -67.87200000
C      -46.04870000     -33.94010000     -68.87420000
H      -46.18620000     -34.53280000     -67.94260000
H      -46.77440000     -33.13320000     -68.87450000
C      -47.75070000     -31.98760000     -71.13760000
H      -48.67350000     -31.51760000     -71.46100000
H      -47.80720000     -32.07510000     -69.99650000
C      -47.61800000     -33.34070000     -71.80860000
C      -48.13480000     -33.51540000     -73.09350000
C      -46.90020000     -34.45730000     -71.28950000
H      -48.77940000     -32.97460000     -73.70790000
C      -46.97970000     -35.51790000     -72.18090000
C      -46.24590000     -34.86920000     -70.02650000
C      -45.92520000     -36.20280000     -70.04400000
S      -47.89100000     -35.16490000     -73.65590000
S      -46.31610000     -36.97830000     -71.50890000
H      -45.45410000     -36.74310000     -69.17930000
