40
Properties=species:S:1:pos:R:3 #=T CELL(abcABC):=T 1.889726e+02=T 90.00000=T Traj:=T positionsangstrom=T Step:=T 0=T Bead:=T pbc="F F F"
C      -47.67140000     -34.87910000     -70.02550000
C      -48.41280000     -34.50180000     -71.14370000
C      -48.01520000     -34.87790000     -72.41950000
C      -46.82790000     -35.65620000     -72.58750000
C      -46.07270000     -36.12390000     -71.45660000
C      -46.57340000     -35.73480000     -70.12550000
H      -47.96810000     -34.61050000     -69.02970000
H      -48.59370000     -34.58960000     -73.28050000
H      -45.10870000     -36.60150000     -71.47150000
H      -46.10430000     -36.03100000     -69.19770000
C      -46.44190000     -36.15360000     -73.95180000
H      -47.39920000     -36.28850000     -74.47640000
H      -45.97430000     -37.14860000     -73.95600000
C      -49.59990000     -33.53550000     -70.92310000
H      -50.27010000     -33.57110000     -71.82670000
H      -50.18260000     -33.81060000     -70.10460000
S      -45.50340000     -34.96550000     -75.00270000
S      -48.97960000     -31.86730000     -71.06130000
C      -44.05140000     -34.35310000     -73.99640000
H      -43.63030000     -35.18240000     -73.41620000
H      -43.22180000     -33.89910000     -74.64840000
C      -47.36320000     -31.81870000     -70.00410000
H      -47.26470000     -32.84900000     -69.75720000
H      -47.50460000     -31.26540000     -69.11160000
C      -46.14120000     -31.16770000     -70.68820000
H      -46.13980000     -31.42160000     -71.79630000
H      -46.25200000     -30.02430000     -70.54680000
C      -44.49120000     -33.29320000     -72.87680000
H      -45.43160000     -33.59140000     -72.42520000
H      -44.70760000     -32.27870000     -73.32680000
C      -43.39570000     -33.07870000     -71.87310000
C      -42.16400000     -33.66580000     -71.88990000
C      -43.61800000     -32.32310000     -70.69530000
H      -41.79880000     -34.35560000     -72.63790000
C      -42.44190000     -32.25410000     -69.90780000
C      -44.66820000     -31.53780000     -70.08650000
C      -44.26890000     -30.99340000     -68.83450000
S      -41.13500000     -33.15940000     -70.54510000
S      -42.57520000     -31.41410000     -68.36180000
H      -44.82260000     -30.29320000     -68.28800000
