40
Properties=species:S:1:pos:R:3 #=T CELL(abcABC):=T 1.889726e+02=T 90.00000=T Traj:=T positionsangstrom=T Step:=T 0=T Bead:=T pbc="F F F"
C      -47.23980000     -35.09910000     -70.09350000
C      -48.01850000     -34.47700000     -70.98510000
C      -47.84040000     -34.77680000     -72.32920000
C      -47.01140000     -35.80790000     -72.75330000
C      -46.22680000     -36.43850000     -71.80380000
C      -46.35200000     -36.11040000     -70.44010000
H      -47.41000000     -34.91830000     -69.05690000
H      -48.52320000     -34.34800000     -73.03660000
H      -45.51140000     -37.21560000     -72.07430000
H      -45.78710000     -36.63790000     -69.66700000
C      -46.76270000     -36.08860000     -74.22580000
H      -47.72330000     -36.26270000     -74.75230000
H      -46.27240000     -36.99980000     -74.38000000
C      -49.07150000     -33.43350000     -70.50480000
H      -50.07180000     -33.50350000     -71.03700000
H      -49.15330000     -33.52930000     -69.40820000
S      -45.75950000     -34.72610000     -75.08980000
S      -48.72470000     -31.58140000     -70.79280000
C      -44.30940000     -34.32250000     -73.92170000
H      -43.94430000     -35.23020000     -73.59150000
H      -43.63460000     -33.90530000     -74.62640000
C      -46.99960000     -31.34580000     -70.02020000
H      -46.80590000     -32.41020000     -69.60690000
H      -47.25530000     -30.68250000     -69.13270000
C      -45.91010000     -30.91720000     -70.89960000
H      -46.04010000     -31.39410000     -71.83700000
H      -45.93980000     -29.88630000     -71.18080000
C      -44.64130000     -33.41040000     -72.86120000
H      -45.53590000     -33.87390000     -72.40410000
H      -44.92280000     -32.50520000     -73.35000000
C      -43.52100000     -33.14320000     -71.86230000
C      -42.39260000     -33.95630000     -71.74220000
C      -43.63810000     -32.28820000     -70.68360000
H      -41.99730000     -34.48370000     -72.56150000
C      -42.45800000     -32.30810000     -69.92010000
C      -44.59270000     -31.32200000     -70.23420000
C      -44.24230000     -30.87240000     -68.98440000
S      -41.42140000     -33.63320000     -70.33360000
S      -42.69100000     -31.40150000     -68.43390000
H      -44.81740000     -30.04390000     -68.51520000
