40
Properties=species:S:1:pos:R:3 #=T CELL(abcABC):=T 1.889726e+02=T 90.00000=T Traj:=T positionsangstrom=T Step:=T 0=T Bead:=T pbc="F F F"
C      -44.67860000     -34.92340000     -75.33430000
C      -44.70130000     -35.52790000     -74.08660000
C      -45.82410000     -35.75720000     -73.31740000
C      -47.00310000     -35.01090000     -73.74590000
C      -46.96230000     -34.35590000     -74.93760000
C      -45.84910000     -34.31860000     -75.79370000
H      -43.71880000     -35.01920000     -75.83530000
H      -45.79690000     -36.28900000     -72.42590000
H      -47.79870000     -33.60260000     -75.27630000
H      -45.87710000     -33.64910000     -76.59760000
C      -48.30520000     -35.18870000     -72.88910000
H      -47.91960000     -35.78630000     -72.04330000
H      -49.10800000     -35.71510000     -73.43820000
C      -43.40500000     -36.11170000     -73.69270000
H      -43.60340000     -36.61950000     -72.76700000
H      -42.80520000     -36.68290000     -74.42560000
S      -49.05430000     -33.66130000     -72.11430000
S      -42.28510000     -34.63430000     -73.14830000
C      -47.79430000     -32.89530000     -71.12300000
H      -47.19150000     -32.31170000     -71.79360000
H      -48.40580000     -32.19010000     -70.51140000
C      -43.18540000     -34.10950000     -71.51080000
H      -42.42150000     -33.79560000     -70.89720000
H      -43.71250000     -35.04810000     -71.20750000
C      -44.06980000     -32.87560000     -71.75940000
H      -43.70850000     -32.29350000     -72.58910000
H      -45.06320000     -33.17810000     -72.09830000
C      -46.99820000     -33.79430000     -70.17150000
H      -46.27240000     -34.52120000     -70.60400000
H      -47.69760000     -34.38290000     -69.58960000
C      -46.18090000     -32.89770000     -69.20190000
C      -46.63680000     -32.79350000     -67.94470000
C      -44.87070000     -32.28680000     -69.35010000
H      -47.61110000     -33.25320000     -67.61570000
C      -44.49380000     -31.58580000     -68.23000000
C      -43.98090000     -32.06540000     -70.50970000
C      -43.01010000     -31.16390000     -70.21960000
S      -45.67180000     -31.70120000     -66.90820000
S      -43.14610000     -30.53090000     -68.57830000
H      -42.05110000     -31.00600000     -70.76670000
