40
Properties=species:S:1:pos:R:3 #=T CELL(abcABC):=T 1.889726e+02=T 90.00000=T Traj:=T positionsangstrom=T Step:=T 0=T Bead:=T pbc="F F F"
C      -42.59770000     -35.51110000     -69.76210000
C      -43.62500000     -36.32760000     -70.09220000
C      -43.99050000     -36.60390000     -71.45040000
C      -43.33280000     -35.87750000     -72.42590000
C      -42.27680000     -35.05500000     -72.15260000
C      -41.88630000     -34.87300000     -70.81730000
H      -42.32500000     -35.23500000     -68.75090000
H      -44.81030000     -37.34510000     -71.69360000
H      -41.74570000     -34.59000000     -72.93520000
H      -41.03260000     -34.24500000     -70.70180000
C      -43.75350000     -36.07070000     -73.93300000
H      -44.55960000     -36.79960000     -73.93640000
H      -42.92110000     -36.56070000     -74.45390000
C      -44.53810000     -36.80290000     -68.94370000
H      -44.62620000     -37.86330000     -68.84010000
H      -44.05850000     -36.44350000     -68.01200000
S      -44.22610000     -34.55470000     -74.82820000
S      -46.36100000     -36.31680000     -69.11020000
C      -45.44260000     -33.60270000     -73.83800000
H      -45.98540000     -32.90870000     -74.61040000
H      -46.09330000     -34.17990000     -73.18840000
C      -46.57550000     -34.75390000     -70.27670000
H      -47.68850000     -34.54560000     -70.09860000
H      -46.42760000     -35.10770000     -71.29980000
C      -45.74450000     -33.58290000     -69.78410000
H      -45.72780000     -33.73890000     -68.64210000
H      -44.64260000     -33.54710000     -69.98950000
C      -44.67870000     -32.58400000     -72.84870000
H      -43.78720000     -32.21320000     -73.38020000
H      -44.38650000     -33.04010000     -71.87020000
C      -45.66930000     -31.45520000     -72.43110000
C      -45.91280000     -30.33070000     -73.17680000
C      -46.25590000     -31.32800000     -71.09520000
H      -45.68770000     -30.21070000     -74.28470000
C      -47.02290000     -30.18820000     -70.90430000
C      -46.34130000     -32.23780000     -69.92420000
C      -47.01370000     -31.61080000     -68.87640000
S      -46.85680000     -29.11860000     -72.26050000
S      -47.47880000     -29.94910000     -69.20210000
H      -47.20910000     -31.98360000     -67.90060000
