40
Properties=species:S:1:pos:R:3 #=T CELL(abcABC):=T 1.889726e+02=T 90.00000=T Traj:=T positionsangstrom=T Step:=T 0=T Bead:=T pbc="F F F"
C      -42.93810000     -35.46640000     -69.83940000
C      -44.01690000     -36.25860000     -70.29350000
C      -44.31190000     -36.33900000     -71.67010000
C      -43.40420000     -35.79610000     -72.58350000
C      -42.23060000     -35.07740000     -72.10630000
C      -42.06410000     -34.89550000     -70.72210000
H      -42.68180000     -35.53080000     -68.83340000
H      -45.14940000     -36.95090000     -72.01550000
H      -41.48160000     -34.65550000     -72.80960000
H      -41.19080000     -34.34230000     -70.32390000
C      -43.66500000     -36.01090000     -74.04230000
H      -44.42760000     -36.76670000     -74.21300000
H      -42.78330000     -36.44820000     -74.54400000
C      -44.96460000     -36.96100000     -69.28480000
H      -45.05950000     -38.00270000     -69.62330000
H      -44.44760000     -36.99390000     -68.34520000
S      -44.05460000     -34.42220000     -74.93450000
S      -46.59210000     -36.19660000     -69.02820000
C      -45.16650000     -33.54130000     -73.65770000
H      -45.76420000     -32.85190000     -74.26530000
H      -45.83710000     -34.31930000     -73.16290000
C      -46.65440000     -34.56380000     -69.97030000
H      -47.64190000     -34.21660000     -69.65300000
H      -46.68850000     -34.74290000     -71.13470000
C      -45.56980000     -33.57480000     -69.52960000
H      -45.13210000     -33.69000000     -68.47590000
H      -44.58630000     -33.67470000     -70.12090000
C      -44.38570000     -32.69930000     -72.72640000
H      -43.55430000     -32.21310000     -73.33890000
H      -43.85880000     -33.29000000     -71.93430000
C      -45.28060000     -31.50080000     -72.22400000
C      -45.61210000     -30.42600000     -73.06080000
C      -45.88320000     -31.35890000     -70.90550000
H      -45.09310000     -30.12720000     -73.95830000
C      -46.65340000     -30.16940000     -70.81900000
C      -46.10380000     -32.15730000     -69.74610000
C      -47.06250000     -31.64280000     -68.86870000
S      -46.75820000     -29.27830000     -72.21490000
S      -47.80590000     -30.16150000     -69.47500000
H      -47.39740000     -32.19030000     -67.96910000
