40
Properties=species:S:1:pos:R:3 #=T CELL(abcABC):=T 1.889726e+02=T 90.00000=T Traj:=T positionsangstrom=T Step:=T 0=T Bead:=T pbc="F F F"
C      -48.85440000     -30.77260000     -72.78670000
C      -48.36300000     -31.46240000     -71.67670000
C      -47.09550000     -30.95800000     -71.20980000
C      -46.37290000     -29.98250000     -71.91490000
C      -46.96520000     -29.33060000     -73.00630000
C      -48.22280000     -29.66650000     -73.40060000
H      -49.69910000     -31.12550000     -73.37710000
H      -46.45710000     -31.51740000     -70.50490000
H      -46.46530000     -28.43540000     -73.43230000
H      -48.78630000     -29.09590000     -74.13000000
C      -44.96330000     -29.49250000     -71.57550000
H      -44.87890000     -29.55280000     -70.45760000
H      -44.91690000     -28.40230000     -71.90540000
C      -48.94040000     -32.74390000     -71.09060000
H      -49.20720000     -32.56640000     -70.08860000
H      -49.83850000     -32.99060000     -71.62640000
S      -43.65610000     -30.35940000     -72.47180000
S      -47.85820000     -34.21670000     -71.04680000
C      -43.52800000     -31.90520000     -71.42620000
H      -43.07240000     -31.57450000     -70.47530000
H      -44.59480000     -32.18450000     -71.12440000
C      -46.70950000     -33.79820000     -72.32740000
H      -45.90860000     -33.06770000     -72.07210000
H      -47.22800000     -33.46920000     -73.23850000
C      -45.83730000     -35.02450000     -72.77200000
H      -46.40750000     -35.81210000     -73.28110000
H      -45.10370000     -34.68100000     -73.43050000
C      -42.88500000     -33.10980000     -72.05850000
H      -41.88380000     -32.84720000     -72.42480000
H      -43.38470000     -33.49730000     -72.92620000
C      -42.96960000     -34.23350000     -71.09580000
C      -42.11690000     -34.25410000     -69.96530000
C      -43.98130000     -35.31010000     -70.96210000
H      -41.39570000     -33.49620000     -69.68890000
C      -43.61280000     -36.20330000     -69.90800000
C      -45.07350000     -35.72470000     -71.69290000
C      -45.68920000     -36.88560000     -71.12750000
S      -42.29040000     -35.67870000     -68.91070000
S      -44.61160000     -37.62060000     -69.89870000
H      -46.50680000     -37.51140000     -71.60560000
