40
Properties=species:S:1:pos:R:3 #=T CELL(abcABC):=T 1.889726e+02=T 90.00000=T Traj:=T positionsangstrom=T Step:=T 0=T Bead:=T pbc="F F F"
C      -47.04800000     -35.06590000     -70.09830000
C      -48.01040000     -34.47760000     -70.89250000
C      -47.95320000     -34.73860000     -72.26770000
C      -47.05180000     -35.63600000     -72.77380000
C      -46.23810000     -36.35040000     -71.87220000
C      -46.15740000     -35.96520000     -70.61130000
H      -47.09000000     -34.98270000     -69.00590000
H      -48.62270000     -34.24060000     -72.93310000
H      -45.47050000     -37.01760000     -72.25120000
H      -45.39180000     -36.42150000     -69.92390000
C      -47.04830000     -35.75180000     -74.27050000
H      -48.00790000     -35.90560000     -74.71660000
H      -46.55040000     -36.70790000     -74.50950000
C      -48.95770000     -33.53730000     -70.30510000
H      -49.97860000     -33.58030000     -70.71530000
H      -49.06250000     -33.53730000     -69.23060000
S      -46.17540000     -34.29090000     -75.09810000
S      -48.43060000     -31.80960000     -70.66380000
C      -44.64860000     -34.16880000     -74.09070000
H      -44.33840000     -35.29680000     -73.86790000
H      -43.86890000     -33.67360000     -74.73790000
C      -46.77640000     -31.69160000     -69.96920000
H      -46.49030000     -32.75160000     -69.50170000
H      -46.70760000     -31.03960000     -68.98810000
C      -45.70920000     -30.89260000     -70.84360000
H      -45.85660000     -30.96760000     -71.91780000
H      -46.01140000     -29.87860000     -70.57800000
C      -44.88430000     -33.32740000     -72.70170000
H      -45.83470000     -33.70340000     -72.30380000
H      -45.08810000     -32.23150000     -73.07890000
C      -43.73700000     -33.34650000     -71.71780000
C      -42.77820000     -34.29460000     -71.65000000
C      -43.60000000     -32.33290000     -70.70300000
H      -42.59840000     -35.18890000     -72.34950000
C      -42.50000000     -32.55590000     -69.86160000
C      -44.37800000     -31.22170000     -70.22830000
C      -43.87140000     -30.55560000     -69.13570000
S      -41.58800000     -34.00650000     -70.35860000
S      -42.36560000     -31.34430000     -68.66720000
H      -44.12710000     -29.70670000     -68.47340000
