40
Properties=species:S:1:pos:R:3 #=T CELL(abcABC):=T 1.889726e+02=T 90.00000=T Traj:=T positionsangstrom=T Step:=T 0=T Bead:=T pbc="F F F"
C      -42.55840000     -30.85320000     -70.90580000
C      -43.15330000     -32.13160000     -71.15930000
C      -44.32000000     -32.18560000     -71.89230000
C      -44.82720000     -31.06080000     -72.46510000
C      -44.22750000     -29.81240000     -72.29740000
C      -43.14640000     -29.70920000     -71.50840000
H      -41.64310000     -30.78830000     -70.36200000
H      -44.85040000     -33.11760000     -72.17870000
H      -44.61340000     -28.95990000     -72.82820000
H      -42.74440000     -28.71260000     -71.34660000
C      -46.12930000     -31.29720000     -73.21900000
H      -46.15250000     -32.31720000     -73.57410000
H      -46.35760000     -30.60250000     -74.00160000
C      -42.51850000     -33.34970000     -70.58260000
H      -42.87420000     -34.31580000     -70.99080000
H      -41.43520000     -33.41510000     -70.81340000
S      -47.61520000     -31.04340000     -72.16860000
S      -42.74540000     -33.45760000     -68.73960000
C      -47.31750000     -31.82570000     -70.52600000
H      -46.28620000     -32.00530000     -70.37780000
H      -47.57450000     -31.08710000     -69.76050000
C      -44.52410000     -33.34810000     -68.59310000
H      -44.77780000     -32.65320000     -69.35050000
H      -44.73980000     -32.88520000     -67.62670000
C      -45.39710000     -34.55740000     -68.69940000
H      -45.27070000     -35.33020000     -67.94360000
H      -46.36180000     -34.10510000     -68.40320000
C      -48.12340000     -33.20340000     -70.41790000
H      -49.17800000     -33.06670000     -70.71630000
H      -47.94940000     -33.63740000     -69.35490000
C      -47.48250000     -34.17010000     -71.42510000
C      -47.93840000     -34.25620000     -72.75290000
C      -46.31130000     -34.96850000     -71.19430000
H      -48.70820000     -33.71130000     -73.39660000
C      -45.93000000     -35.69450000     -72.31860000
C      -45.46160000     -35.23220000     -70.04560000
C      -44.49610000     -36.14830000     -70.39960000
S      -46.89360000     -35.35630000     -73.68450000
S      -44.60670000     -36.73850000     -72.05080000
H      -43.75260000     -36.71590000     -69.79510000
