40
Properties=species:S:1:pos:R:3 #=T CELL(abcABC):=T 1.889726e+02=T 90.00000=T Traj:=T positionsangstrom=T Step:=T 0=T Bead:=T pbc="F F F"
C      -42.38650000     -30.89290000     -71.09780000
C      -43.11200000     -32.16460000     -71.23910000
C      -44.36570000     -32.14300000     -71.95520000
C      -44.96740000     -30.95090000     -72.36710000
C      -44.21140000     -29.75750000     -72.25100000
C      -42.96610000     -29.72410000     -71.62290000
H      -41.51390000     -30.85570000     -70.49370000
H      -44.94840000     -33.07310000     -72.16310000
H      -44.58760000     -28.78680000     -72.57100000
H      -42.48270000     -28.74160000     -71.57350000
C      -46.30590000     -31.02390000     -73.16900000
H      -46.27890000     -31.91290000     -73.88440000
H      -46.34070000     -30.08630000     -73.76220000
C      -42.43220000     -33.34220000     -70.60700000
H      -42.88240000     -34.18330000     -71.16920000
H      -41.37740000     -33.24260000     -70.74920000
S      -47.87750000     -30.89250000     -72.11380000
S      -42.73170000     -33.61990000     -68.78670000
C      -47.40650000     -31.81680000     -70.64530000
H      -46.30410000     -31.82920000     -70.58370000
H      -47.80870000     -31.25480000     -69.75780000
C      -44.50970000     -33.31240000     -68.54980000
H      -44.71860000     -32.57810000     -69.38820000
H      -44.72390000     -32.79780000     -67.68680000
C      -45.44100000     -34.56810000     -68.74770000
H      -45.09150000     -35.24000000     -68.01770000
H      -46.50790000     -34.34200000     -68.43450000
C      -48.03460000     -33.25620000     -70.43510000
H      -49.07010000     -33.24850000     -70.70080000
H      -47.90360000     -33.54240000     -69.38360000
C      -47.35870000     -34.14880000     -71.36660000
C      -47.82270000     -34.23830000     -72.68220000
C      -46.26530000     -35.04720000     -71.15110000
H      -48.63530000     -33.66630000     -73.17990000
C      -45.88210000     -35.75050000     -72.28170000
C      -45.35850000     -35.22950000     -70.02750000
C      -44.40720000     -36.16870000     -70.33130000
S      -46.93370000     -35.35400000     -73.69630000
S      -44.56580000     -36.87840000     -71.99130000
H      -43.70600000     -36.50860000     -69.59880000
