40
Properties=species:S:1:pos:R:3 #=T CELL(abcABC):=T 1.889726e+02=T 90.00000=T Traj:=T positionsangstrom=T Step:=T 0=T Bead:=T pbc="F F F"
C      -42.67310000     -30.57080000     -71.16760000
C      -43.17960000     -31.85360000     -71.56360000
C      -44.47730000     -32.01970000     -72.15540000
C      -45.26300000     -30.87750000     -72.36270000
C      -44.73990000     -29.62380000     -72.01700000
C      -43.47240000     -29.43440000     -71.47830000
H      -41.65360000     -30.39780000     -70.74040000
H      -44.88370000     -32.96590000     -72.41070000
H      -45.35210000     -28.73740000     -72.18200000
H      -43.19240000     -28.37180000     -71.33240000
C      -46.58930000     -31.14820000     -72.96620000
H      -46.66480000     -32.21800000     -73.25260000
H      -46.88610000     -30.57660000     -73.88070000
C      -42.26790000     -33.01830000     -71.26190000
H      -42.50440000     -33.88400000     -71.86060000
H      -41.22140000     -32.70440000     -71.49070000
S      -48.08940000     -30.81050000     -71.82980000
S      -42.35950000     -33.47980000     -69.52830000
C      -47.49170000     -31.74540000     -70.29900000
H      -46.38280000     -31.52120000     -70.34750000
H      -47.83980000     -31.11950000     -69.47760000
C      -44.10700000     -33.17780000     -68.98070000
H      -44.69070000     -32.50050000     -69.59230000
H      -44.00980000     -32.69000000     -68.08330000
C      -44.94920000     -34.48870000     -68.73650000
H      -44.39570000     -35.04050000     -68.01750000
H      -45.93670000     -34.23760000     -68.20710000
C      -47.94870000     -33.23990000     -70.33880000
H      -49.03240000     -33.20580000     -70.51080000
H      -47.84470000     -33.64420000     -69.32940000
C      -47.26210000     -34.22290000     -71.30850000
C      -47.84360000     -34.52830000     -72.51010000
C      -46.15200000     -35.13180000     -71.01710000
H      -48.77440000     -34.05900000     -72.85150000
C      -45.91950000     -36.05880000     -72.03340000
C      -45.10700000     -35.28760000     -70.02550000
C      -44.19180000     -36.26770000     -70.33070000
S      -47.05880000     -35.80130000     -73.34600000
S      -44.46180000     -37.01500000     -71.86180000
H      -43.25790000     -36.51980000     -69.93060000
