40
Properties=species:S:1:pos:R:3 #=T CELL(abcABC):=T 1.889726e+02=T 90.00000=T Traj:=T positionsangstrom=T Step:=T 0=T Bead:=T pbc="F F F"
C      -42.99690000     -30.62810000     -71.22820000
C      -43.34060000     -31.93280000     -71.67720000
C      -44.57590000     -32.16230000     -72.34080000
C      -45.48260000     -31.12350000     -72.57440000
C      -45.03900000     -29.81340000     -72.22640000
C      -43.80930000     -29.54960000     -71.57750000
H      -41.97780000     -30.54420000     -70.72560000
H      -44.76070000     -33.19190000     -72.60510000
H      -45.64450000     -28.96540000     -72.52360000
H      -43.46580000     -28.50510000     -71.38270000
C      -46.92390000     -31.44700000     -73.06510000
H      -46.97450000     -32.48750000     -73.41660000
H      -47.31290000     -30.80340000     -73.85590000
C      -42.53710000     -33.16090000     -71.44680000
H      -42.95410000     -34.05460000     -71.84780000
H      -41.56240000     -33.06800000     -71.90730000
S      -48.18010000     -31.16780000     -71.72210000
S      -42.12550000     -33.30320000     -69.60530000
C      -47.35550000     -31.70110000     -70.16000000
H      -46.29790000     -31.38010000     -70.30030000
H      -47.84130000     -31.17270000     -69.37600000
C      -43.77150000     -33.24370000     -68.75680000
H      -44.43310000     -32.60480000     -69.36320000
H      -43.67630000     -32.81370000     -67.66630000
C      -44.41160000     -34.76070000     -68.71560000
H      -43.72370000     -35.38760000     -68.25640000
H      -45.22810000     -34.72890000     -68.01990000
C      -47.36050000     -33.20260000     -69.71350000
H      -48.38110000     -33.32360000     -69.28320000
H      -46.68570000     -33.26720000     -68.85840000
C      -47.12060000     -34.16440000     -70.84910000
C      -48.04110000     -34.46590000     -71.84090000
C      -45.93460000     -34.96750000     -71.00310000
H      -49.08920000     -34.15400000     -72.21110000
C      -45.87660000     -35.64800000     -72.21470000
C      -44.80400000     -35.29750000     -70.10940000
C      -43.95540000     -36.20580000     -70.67190000
S      -47.35430000     -35.53870000     -73.11790000
S      -44.46540000     -36.72070000     -72.31720000
H      -43.11350000     -36.62280000     -70.19680000
