40
Properties=species:S:1:pos:R:3 #=T CELL(abcABC):=T 1.889726e+02=T 90.00000=T Traj:=T positionsangstrom=T Step:=T 0=T Bead:=T pbc="F F F"
C      -42.74990000     -30.48510000     -71.33340000
C      -43.16870000     -31.78350000     -71.62750000
C      -44.41270000     -31.97250000     -72.25070000
C      -45.30340000     -30.88230000     -72.42750000
C      -44.98750000     -29.62900000     -71.93910000
C      -43.69000000     -29.43920000     -71.47720000
H      -41.82580000     -30.26820000     -70.76320000
H      -44.79820000     -32.87910000     -72.70470000
H      -45.73460000     -28.78880000     -71.94030000
H      -43.37220000     -28.45410000     -71.12970000
C      -46.68970000     -31.10680000     -73.05800000
H      -46.79190000     -31.96490000     -73.69010000
H      -46.82700000     -30.18570000     -73.67710000
C      -42.35170000     -32.97820000     -71.31400000
H      -42.61710000     -33.84220000     -71.85320000
H      -41.21830000     -32.77330000     -71.49510000
S      -48.03690000     -31.00090000     -71.78560000
S      -42.33630000     -33.44460000     -69.51780000
C      -47.37520000     -31.87130000     -70.30400000
H      -46.31320000     -31.80480000     -70.12480000
H      -47.84960000     -31.46830000     -69.43230000
C      -44.00900000     -33.12160000     -68.88360000
H      -44.50260000     -32.31750000     -69.63700000
H      -44.08590000     -32.63170000     -67.90610000
C      -44.73900000     -34.46940000     -68.75960000
H      -44.15450000     -35.22540000     -68.16440000
H      -45.59900000     -34.25570000     -68.19450000
C      -47.81790000     -33.31690000     -70.18130000
H      -48.90660000     -33.31620000     -70.35050000
H      -47.56600000     -33.67130000     -69.19030000
C      -47.28110000     -34.29990000     -71.14620000
C      -48.03890000     -34.67650000     -72.23640000
C      -46.04200000     -35.03020000     -71.08420000
H      -48.93840000     -34.23320000     -72.45470000
C      -45.83280000     -35.93170000     -72.14840000
C      -44.96740000     -35.17140000     -70.05860000
C      -44.09000000     -36.18550000     -70.35830000
S      -47.17110000     -35.80790000     -73.30960000
S      -44.46080000     -36.97160000     -71.97420000
H      -43.34320000     -36.64800000     -69.69610000
