40
Properties=species:S:1:pos:R:3 #=T CELL(abcABC):=T 1.889726e+02=T 90.00000=T Traj:=T positionsangstrom=T Step:=T 0=T Bead:=T pbc="F F F"
C      -42.92250000     -30.63210000     -71.32640000
C      -43.32570000     -31.91380000     -71.69970000
C      -44.61070000     -32.07750000     -72.34430000
C      -45.45370000     -30.97500000     -72.55910000
C      -45.04260000     -29.71220000     -72.07730000
C      -43.79660000     -29.57260000     -71.47680000
H      -41.91970000     -30.54600000     -70.90310000
H      -44.77060000     -33.11560000     -72.64980000
H      -45.63200000     -28.83640000     -72.17470000
H      -43.56180000     -28.67350000     -70.94980000
C      -46.81340000     -31.20480000     -73.14800000
H      -46.86010000     -32.23560000     -73.58190000
H      -46.98750000     -30.45690000     -73.92320000
C      -42.43070000     -33.03830000     -71.35730000
H      -42.96690000     -33.97970000     -71.78660000
H      -41.45060000     -32.93690000     -71.80180000
S      -48.06770000     -31.19390000     -71.75080000
S      -42.11860000     -33.30360000     -69.49680000
C      -47.19950000     -31.80630000     -70.26090000
H      -46.09070000     -31.78660000     -70.39760000
H      -47.38520000     -31.13210000     -69.40580000
C      -43.87270000     -33.32890000     -68.79900000
H      -44.49860000     -32.64580000     -69.26590000
H      -43.65030000     -32.89790000     -67.79640000
C      -44.64790000     -34.64380000     -68.70700000
H      -44.11230000     -35.40460000     -68.15660000
H      -45.67400000     -34.45850000     -68.22390000
C      -47.63710000     -33.24780000     -69.90770000
H      -48.74070000     -33.30680000     -69.92690000
H      -47.41160000     -33.52830000     -68.88800000
C      -47.22570000     -34.24760000     -70.90150000
C      -48.04110000     -34.51390000     -72.00520000
C      -45.93270000     -34.97790000     -70.96370000
H      -48.96590000     -34.12760000     -72.43740000
C      -45.87710000     -35.71080000     -72.13830000
C      -44.82300000     -35.25220000     -70.06360000
C      -43.96880000     -36.10500000     -70.67930000
S      -47.30260000     -35.66670000     -73.15420000
S      -44.51160000     -36.77830000     -72.24660000
H      -43.02220000     -36.38430000     -70.24980000
