40
Properties=species:S:1:pos:R:3 #=T CELL(abcABC):=T 1.889726e+02=T 90.00000=T Traj:=T positionsangstrom=T Step:=T 0=T Bead:=T pbc="F F F"
C      -42.77870000     -30.49910000     -71.48830000
C      -43.22630000     -31.79400000     -71.84810000
C      -44.55480000     -32.07630000     -72.09750000
C      -45.51370000     -31.01360000     -71.98790000
C      -44.99730000     -29.72350000     -71.72930000
C      -43.66930000     -29.45890000     -71.35260000
H      -41.76590000     -30.20790000     -71.36940000
H      -44.96400000     -33.05550000     -72.38690000
H      -45.65730000     -28.86740000     -71.65790000
H      -43.31840000     -28.45580000     -71.10230000
C      -46.97150000     -31.21740000     -72.15510000
H      -47.23260000     -32.18850000     -72.72130000
H      -47.34780000     -30.41050000     -72.67230000
C      -42.16750000     -32.85430000     -71.92030000
H      -42.50800000     -33.73570000     -72.57110000
H      -41.27690000     -32.40850000     -72.30870000
S      -48.04430000     -31.14500000     -70.58090000
S      -41.62850000     -33.57000000     -70.35760000
C      -47.14870000     -32.27740000     -69.36020000
H      -46.03740000     -32.07080000     -69.41470000
H      -47.41400000     -31.95780000     -68.36850000
C      -43.28240000     -33.75250000     -69.29870000
H      -43.86830000     -32.93520000     -69.58470000
H      -42.83960000     -33.51220000     -68.42410000
C      -44.08020000     -35.06470000     -69.32810000
H      -43.40060000     -35.89670000     -69.06410000
H      -44.81310000     -34.94460000     -68.55700000
C      -47.54920000     -33.72780000     -69.21920000
H      -48.59660000     -33.76190000     -68.86710000
H      -46.89690000     -34.26350000     -68.54540000
C      -47.33830000     -34.54500000     -70.55160000
C      -48.35610000     -34.47340000     -71.46620000
C      -46.11830000     -35.12290000     -71.11330000
H      -49.41300000     -34.12130000     -71.44850000
C      -46.26380000     -35.44460000     -72.48910000
C      -44.77620000     -35.39700000     -70.59870000
C      -44.11100000     -36.12840000     -71.52870000
S      -47.86210000     -35.22780000     -73.02010000
S      -44.83890000     -36.31190000     -73.08690000
H      -43.03430000     -36.34860000     -71.33270000
