40
Properties=species:S:1:pos:R:3 #=T CELL(abcABC):=T 1.889726e+02=T 90.00000=T Traj:=T positionsangstrom=T Step:=T 0=T Bead:=T pbc="F F F"
C      -48.51850000     -30.23250000     -71.16010000
C      -47.61220000     -30.88810000     -70.32750000
C      -46.23300000     -30.39520000     -70.32570000
C      -45.71960000     -29.62080000     -71.43540000
C      -46.62320000     -29.30640000     -72.47960000
C      -47.99950000     -29.50370000     -72.26520000
H      -49.57350000     -30.20390000     -71.12700000
H      -45.58210000     -30.88360000     -69.55640000
H      -46.22870000     -28.89260000     -73.32500000
H      -48.66740000     -29.12420000     -72.97140000
C      -44.26330000     -29.41220000     -71.69210000
H      -43.73290000     -29.62350000     -70.78020000
H      -44.09320000     -28.40650000     -72.03090000
C      -47.87070000     -31.99420000     -69.33840000
H      -46.97650000     -32.06960000     -68.78430000
H      -48.73860000     -31.92600000     -68.70690000
S      -43.72440000     -30.60590000     -73.10680000
S      -48.17560000     -33.60120000     -70.18300000
C      -43.37040000     -32.05960000     -72.11020000
H      -42.36650000     -32.01860000     -71.60800000
H      -44.01590000     -31.93160000     -71.29260000
C      -46.92020000     -33.43440000     -71.61080000
H      -45.93050000     -33.07430000     -71.29250000
H      -47.44860000     -32.76740000     -72.34790000
C      -46.84470000     -34.88100000     -72.23130000
H      -47.76470000     -35.39950000     -72.19160000
H      -46.47000000     -34.75120000     -73.29620000
C      -43.62490000     -33.35090000     -72.81040000
H      -42.84320000     -33.47770000     -73.61780000
H      -44.54910000     -33.33890000     -73.38990000
C      -43.42300000     -34.71360000     -72.02580000
C      -42.12550000     -35.15850000     -71.78640000
C      -44.37660000     -35.56170000     -71.46700000
H      -41.31670000     -34.52210000     -72.03140000
C      -43.76620000     -36.57110000     -70.70960000
C      -45.87370000     -35.73350000     -71.46490000
C      -46.20270000     -36.82100000     -70.69980000
S      -42.03920000     -36.54850000     -70.77380000
S      -44.85270000     -37.64630000     -70.00150000
H      -47.16830000     -37.19960000     -70.51420000
