40
Properties=species:S:1:pos:R:3 #=T CELL(abcABC):=T 1.889726e+02=T 90.00000=T Traj:=T positionsangstrom=T Step:=T 0=T Bead:=T pbc="F F F"
C      -42.88400000     -30.51570000     -71.50130000
C      -43.19780000     -31.85180000     -71.86090000
C      -44.50430000     -32.08080000     -72.21850000
C      -45.47380000     -31.00950000     -72.37330000
C      -45.09560000     -29.71510000     -72.12470000
C      -43.83840000     -29.46500000     -71.65690000
H      -41.90980000     -30.27180000     -71.27590000
H      -44.75630000     -33.03170000     -72.57180000
H      -45.77970000     -28.92450000     -72.38000000
H      -43.47900000     -28.45930000     -71.43840000
C      -46.84010000     -31.34380000     -72.79270000
H      -46.83680000     -32.37150000     -73.25480000
H      -47.32240000     -30.73300000     -73.59940000
C      -42.18120000     -32.93730000     -71.66150000
H      -42.46870000     -33.80900000     -72.31330000
H      -41.19610000     -32.64970000     -71.97570000
S      -48.06740000     -31.09910000     -71.36910000
S      -41.99380000     -33.40560000     -69.81700000
C      -47.31070000     -31.91300000     -69.87410000
H      -46.19040000     -32.02280000     -70.00320000
H      -47.43760000     -31.24370000     -69.02550000
C      -43.69230000     -33.26190000     -69.07150000
H      -44.08300000     -32.53670000     -69.68430000
H      -43.53750000     -32.79410000     -68.07500000
C      -44.51200000     -34.59230000     -68.94600000
H      -44.00580000     -35.16570000     -68.26730000
H      -45.46600000     -34.36610000     -68.46010000
C      -47.70050000     -33.43580000     -69.61950000
H      -48.80600000     -33.38110000     -69.56160000
H      -47.18380000     -33.66690000     -68.71580000
C      -47.31320000     -34.27730000     -70.79590000
C      -48.14570000     -34.46630000     -71.84790000
C      -46.01320000     -35.02480000     -70.98800000
H      -49.14180000     -34.14530000     -71.97230000
C      -46.00660000     -35.82110000     -72.13440000
C      -44.81590000     -35.24950000     -70.21810000
C      -43.93850000     -36.11040000     -70.81950000
S      -47.49120000     -35.63530000     -73.03590000
S      -44.54040000     -36.77040000     -72.37470000
H      -43.03970000     -36.57920000     -70.52170000
