40
Properties=species:S:1:pos:R:3 #=T CELL(abcABC):=T 1.889726e+02=T 90.00000=T Traj:=T positionsangstrom=T Step:=T 0=T Bead:=T pbc="F F F"
C      -44.70750000     -35.24660000     -74.63030000
C      -44.21230000     -33.96880000     -74.43360000
C      -45.05960000     -32.92560000     -74.56460000
C      -46.46130000     -33.08710000     -74.61550000
C      -46.98470000     -34.39300000     -74.70890000
C      -46.07360000     -35.44860000     -74.88850000
H      -44.16250000     -36.17780000     -74.77340000
H      -44.77000000     -31.87080000     -74.47360000
H      -48.08060000     -34.56340000     -74.80510000
H      -46.38430000     -36.51600000     -75.04200000
C      -47.40320000     -31.96290000     -74.61030000
H      -48.35400000     -32.43770000     -74.50310000
H      -47.55640000     -31.46710000     -75.58310000
C      -42.72380000     -33.62130000     -74.12770000
H      -42.05670000     -33.80010000     -74.95010000
H      -42.70030000     -32.60370000     -73.79720000
S      -47.16060000     -30.66860000     -73.34370000
S      -41.98840000     -34.70090000     -72.74500000
C      -47.39280000     -31.39560000     -71.73910000
H      -47.30410000     -30.59220000     -71.00700000
H      -48.45040000     -31.76780000     -71.55870000
C      -43.23250000     -34.59160000     -71.41550000
H      -43.14020000     -35.58570000     -70.95330000
H      -44.23200000     -34.60670000     -71.94370000
C      -42.95750000     -33.46850000     -70.42380000
H      -41.91890000     -33.54190000     -70.08500000
H      -43.02330000     -32.45650000     -70.88320000
C      -46.33970000     -32.50060000     -71.38740000
H      -45.39640000     -32.12880000     -71.65360000
H      -46.51560000     -33.29790000     -72.14220000
C      -46.41290000     -32.95510000     -69.93600000
C      -47.61740000     -33.02410000     -69.25770000
C      -45.30000000     -33.35180000     -69.06830000
H      -48.51940000     -32.92040000     -69.78460000
C      -45.72980000     -33.65180000     -67.75240000
C      -43.79770000     -33.51900000     -69.15820000
C      -43.28670000     -33.72800000     -67.88340000
S      -47.52970000     -33.47420000     -67.59130000
S      -44.51020000     -33.96020000     -66.61710000
H      -42.26910000     -34.05070000     -67.59140000
