40
Properties=species:S:1:pos:R:3 #=T CELL(abcABC):=T 1.889726e+02=T 90.00000=T Traj:=T positionsangstrom=T Step:=T 0=T Bead:=T pbc="F F F"
C      -47.17440000     -29.58070000     -69.69700000
C      -46.30910000     -30.69770000     -69.50680000
C      -45.07350000     -30.69050000     -70.13630000
C      -44.71020000     -29.72790000     -71.04140000
C      -45.59680000     -28.66230000     -71.20530000
C      -46.85850000     -28.55280000     -70.55880000
H      -48.06450000     -29.52670000     -69.05810000
H      -44.40910000     -31.55010000     -69.97050000
H      -45.24020000     -27.90010000     -71.86320000
H      -47.45460000     -27.69290000     -70.60600000
C      -43.39530000     -29.85360000     -71.74780000
H      -42.59570000     -30.46130000     -71.26580000
H      -43.06370000     -28.84930000     -71.85670000
C      -46.80140000     -31.71810000     -68.52330000
H      -46.04380000     -31.74770000     -67.69090000
H      -47.69670000     -31.31400000     -68.04010000
S      -43.66820000     -30.74070000     -73.29420000
S      -47.16650000     -33.41650000     -69.26740000
C      -43.33300000     -32.47720000     -72.78950000
H      -42.27020000     -32.71150000     -73.14740000
H      -43.39080000     -32.40770000     -71.72650000
C      -46.89530000     -33.01820000     -71.10450000
H      -45.85100000     -32.73580000     -71.32220000
H      -47.58360000     -32.17940000     -71.48810000
C      -47.35830000     -34.17420000     -71.94400000
H      -48.44130000     -34.36580000     -72.02900000
H      -47.12580000     -33.91800000     -73.04010000
C      -44.35700000     -33.51840000     -73.21480000
H      -44.25800000     -33.65940000     -74.28460000
H      -45.38180000     -33.16550000     -73.10590000
C      -44.13020000     -34.84160000     -72.53920000
C      -42.95250000     -35.56380000     -72.48560000
C      -45.17900000     -35.64020000     -71.96220000
H      -42.07010000     -35.26760000     -73.01350000
C      -44.79590000     -36.91230000     -71.57400000
C      -46.62710000     -35.44680000     -71.66580000
C      -47.21650000     -36.59360000     -71.10070000
S      -43.02250000     -37.15170000     -71.79170000
S      -46.04510000     -37.93530000     -71.03080000
H      -48.23130000     -36.81950000     -70.85020000
