40
Properties=species:S:1:pos:R:3 #=T CELL(abcABC):=T 1.889726e+02=T 90.00000=T Traj:=T positionsangstrom=T Step:=T 0=T Bead:=T pbc="F F F"
C      -42.78130000     -30.50660000     -71.27280000
C      -43.27710000     -31.73900000     -71.81290000
C      -44.64830000     -31.90010000     -72.02340000
C      -45.48960000     -30.80190000     -71.84160000
C      -44.98500000     -29.66950000     -71.17960000
C      -43.61300000     -29.48870000     -70.95690000
H      -41.69150000     -30.36540000     -71.17560000
H      -45.01690000     -32.87110000     -72.34050000
H      -45.63860000     -28.87950000     -70.85460000
H      -43.31420000     -28.55630000     -70.46960000
C      -47.08030000     -30.90190000     -71.85050000
H      -47.24750000     -31.68900000     -72.54220000
H      -47.43600000     -29.93190000     -72.27350000
C      -42.33680000     -32.83480000     -72.10390000
H      -42.66170000     -33.53400000     -72.82230000
H      -41.40240000     -32.47040000     -72.54830000
S      -47.81980000     -31.24380000     -70.20800000
S      -41.79790000     -33.83550000     -70.59780000
C      -46.67640000     -32.26950000     -69.30870000
H      -45.66820000     -32.27410000     -69.76110000
H      -46.45190000     -31.94320000     -68.21570000
C      -43.16820000     -33.88660000     -69.44840000
H      -43.74320000     -32.97210000     -69.57920000
H      -42.75570000     -33.83170000     -68.47800000
C      -44.04640000     -35.25290000     -69.52450000
H      -43.45520000     -36.08420000     -69.31770000
H      -44.73320000     -35.04580000     -68.69010000
C      -47.16740000     -33.81990000     -69.25690000
H      -48.15690000     -33.90890000     -68.79100000
H      -46.51220000     -34.48680000     -68.68150000
C      -47.23510000     -34.39740000     -70.68610000
C      -48.32430000     -34.29640000     -71.53100000
C      -46.17610000     -35.10400000     -71.27710000
H      -49.22380000     -33.74010000     -71.30010000
C      -46.41470000     -35.53860000     -72.55160000
C      -44.79440000     -35.49170000     -70.83360000
C      -44.09950000     -36.11200000     -71.83000000
S      -48.02830000     -35.09860000     -73.05980000
S      -45.01510000     -36.28340000     -73.29860000
H      -43.15840000     -36.65490000     -71.68510000
