40
Properties=species:S:1:pos:R:3 #=T CELL(abcABC):=T 1.889726e+02=T 90.00000=T Traj:=T positionsangstrom=T Step:=T 0=T Bead:=T pbc="F F F"
C      -41.89120000     -31.68680000     -70.70010000
C      -42.90780000     -32.08380000     -71.59250000
C      -44.26210000     -31.92310000     -71.29400000
C      -44.58610000     -31.35200000     -70.05140000
C      -43.54560000     -31.05250000     -69.08620000
C      -42.19170000     -31.15410000     -69.42730000
H      -40.84600000     -31.87600000     -71.02110000
H      -45.01430000     -32.22000000     -72.00630000
H      -43.92670000     -30.85210000     -68.07720000
H      -41.40050000     -31.03180000     -68.67540000
C      -46.06370000     -31.30400000     -69.61920000
H      -46.64570000     -31.65380000     -70.42480000
H      -46.30260000     -30.33900000     -69.32570000
C      -42.53050000     -32.87430000     -72.81150000
H      -43.42690000     -33.03410000     -73.52500000
H      -41.54190000     -32.45780000     -73.27950000
S      -46.49380000     -32.31350000     -68.15470000
S      -41.95950000     -34.57840000     -72.25910000
C      -45.96930000     -34.01170000     -68.67260000
H      -45.07160000     -33.96570000     -69.27530000
H      -45.70500000     -34.66430000     -67.88820000
C      -43.28300000     -35.14220000     -71.00550000
H      -43.68300000     -34.30000000     -70.41740000
H      -42.88730000     -35.86130000     -70.30270000
C      -44.51210000     -35.92590000     -71.65540000
H      -44.08790000     -36.64260000     -72.31130000
H      -45.05630000     -36.23040000     -70.77400000
C      -47.06310000     -34.77500000     -69.39900000
H      -47.96350000     -34.73180000     -68.75600000
H      -46.78730000     -35.85680000     -69.40630000
C      -47.32340000     -34.20780000     -70.75020000
C      -48.52150000     -33.47200000     -70.88170000
C      -46.60560000     -34.30120000     -71.95130000
H      -49.23710000     -33.34860000     -70.07000000
C      -47.34000000     -33.72870000     -73.03350000
C      -45.41340000     -35.05480000     -72.39630000
C      -45.34310000     -35.04070000     -73.76090000
S      -48.82630000     -33.04260000     -72.60410000
S      -46.62250000     -34.14300000     -74.58800000
H      -44.48640000     -35.48270000     -74.24560000
