40
Properties=species:S:1:pos:R:3 #=T CELL(abcABC):=T 1.889726e+02=T 90.00000=T Traj:=T positionsangstrom=T Step:=T 0=T Bead:=T pbc="F F F"
C      -41.88800000     -32.10270000     -70.54690000
C      -43.04030000     -32.29210000     -71.28230000
C      -44.27470000     -31.94410000     -70.71840000
C      -44.41240000     -31.51470000     -69.40280000
C      -43.22320000     -31.30500000     -68.66620000
C      -41.97980000     -31.62630000     -69.23450000
H      -40.94500000     -32.21470000     -71.08300000
H      -45.21110000     -32.19600000     -71.24500000
H      -43.22740000     -31.03050000     -67.64170000
H      -41.08580000     -31.41670000     -68.58060000
C      -45.78050000     -31.28060000     -68.95230000
H      -46.45040000     -31.10580000     -69.81980000
H      -45.87500000     -30.41400000     -68.17910000
C      -42.78750000     -32.84440000     -72.61710000
H      -43.58420000     -32.79110000     -73.26560000
H      -41.83370000     -32.50610000     -72.93060000
S      -46.61340000     -32.62370000     -68.14930000
S      -42.41120000     -34.69050000     -72.52170000
C      -45.90010000     -34.15560000     -68.77900000
H      -45.00120000     -33.94060000     -69.35410000
H      -45.59980000     -34.74280000     -67.88730000
C      -43.68370000     -35.45280000     -71.38730000
H      -44.14050000     -34.65210000     -70.70840000
H      -43.03710000     -36.11250000     -70.77060000
C      -44.81070000     -36.23350000     -72.24000000
H      -44.38310000     -36.98830000     -72.86450000
H      -45.42990000     -36.91300000     -71.56550000
C      -46.89780000     -35.00060000     -69.60540000
H      -47.79290000     -35.18880000     -69.00810000
H      -46.42910000     -35.93860000     -69.86330000
C      -47.31420000     -34.24010000     -70.86580000
C      -48.15800000     -33.15440000     -70.84200000
C      -46.79410000     -34.44500000     -72.22050000
H      -48.67700000     -32.85330000     -69.98070000
C      -47.27670000     -33.55270000     -73.13820000
C      -45.77180000     -35.24110000     -72.86020000
C      -45.54110000     -34.94830000     -74.19140000
S      -48.28980000     -32.32190000     -72.42620000
S      -46.53660000     -33.54660000     -74.71140000
H      -44.82850000     -35.27770000     -74.99970000
