40
Properties=species:S:1:pos:R:3 #=T CELL(abcABC):=T 1.889726e+02=T 90.00000=T Traj:=T positionsangstrom=T Step:=T 0=T Bead:=T pbc="F F F"
C      -46.18970000     -36.33070000     -69.07290000
C      -46.85650000     -35.16730000     -68.67640000
C      -47.95540000     -34.68600000     -69.50720000
C      -48.11530000     -35.25030000     -70.76100000
C      -47.33870000     -36.39230000     -71.19270000
C      -46.44790000     -36.98550000     -70.28920000
H      -45.36620000     -36.63290000     -68.48920000
H      -48.32410000     -33.71370000     -69.21430000
H      -47.33880000     -36.70360000     -72.18440000
H      -45.81920000     -37.77040000     -70.57980000
C      -49.12390000     -34.70540000     -71.72320000
H      -50.13870000     -34.87310000     -71.21910000
H      -49.07730000     -35.29670000     -72.65350000
C      -46.47970000     -34.47500000     -67.46710000
H      -47.34260000     -34.26860000     -66.88960000
H      -45.83060000     -34.99170000     -66.85030000
S      -48.87300000     -32.88730000     -72.13990000
S      -45.83810000     -32.77170000     -67.82740000
C      -47.30610000     -32.78840000     -73.11530000
H      -47.41730000     -33.42120000     -74.01930000
H      -47.28200000     -31.73920000     -73.44480000
C      -44.58670000     -33.10230000     -69.24350000
H      -45.19400000     -33.55340000     -70.09190000
H      -43.77330000     -33.79970000     -68.82470000
C      -43.95590000     -31.75030000     -69.72360000
H      -44.78840000     -31.14100000     -69.95370000
H      -43.38070000     -31.35780000     -68.88440000
C      -46.11450000     -33.14980000     -72.26680000
H      -46.15440000     -34.23180000     -72.13730000
H      -46.18180000     -32.65170000     -71.28000000
C      -44.83360000     -32.82490000     -72.94110000
C      -44.64250000     -33.14940000     -74.25990000
C      -43.59120000     -32.37200000     -72.36480000
H      -45.40890000     -33.54960000     -75.02900000
C      -42.57990000     -32.27630000     -73.30720000
C      -43.08340000     -31.96270000     -71.08230000
C      -41.72570000     -31.70850000     -71.09550000
S      -42.98810000     -32.77410000     -74.86950000
S      -41.05560000     -31.70300000     -72.69690000
H      -41.08920000     -31.24360000     -70.31900000
