40
Properties=species:S:1:pos:R:3 #=T CELL(abcABC):=T 1.889726e+02=T 90.00000=T Traj:=T positionsangstrom=T Step:=T 0=T Bead:=T pbc="F F F"
C      -42.00760000     -31.42500000     -70.90650000
C      -42.90320000     -32.10840000     -71.75570000
C      -44.31010000     -31.95070000     -71.58310000
C      -44.91290000     -31.03480000     -70.62370000
C      -43.96870000     -30.32450000     -69.87080000
C      -42.58440000     -30.44350000     -70.10210000
H      -40.91890000     -31.58540000     -71.06820000
H      -44.86780000     -32.55830000     -72.24740000
H      -44.28830000     -29.46470000     -69.29830000
H      -41.93090000     -29.82910000     -69.45370000
C      -46.36440000     -30.89650000     -70.34140000
H      -46.87960000     -31.40200000     -71.14110000
H      -46.70120000     -29.87960000     -70.42390000
C      -42.45820000     -33.20800000     -72.65670000
H      -43.19460000     -33.54920000     -73.42900000
H      -41.46610000     -32.89830000     -73.14640000
S      -46.81120000     -31.49440000     -68.68450000
S      -41.96040000     -34.70370000     -71.55420000
C      -46.15780000     -33.22570000     -68.71320000
H      -45.28160000     -33.19550000     -69.35340000
H      -45.82080000     -33.43920000     -67.76740000
C      -43.30210000     -34.93030000     -70.38510000
H      -43.81940000     -33.99360000     -70.20940000
H      -42.78960000     -35.18160000     -69.37120000
C      -44.34110000     -35.98660000     -70.77380000
H      -43.80280000     -36.92710000     -71.01940000
H      -44.97470000     -36.36910000     -69.93300000
C      -47.11100000     -34.38290000     -69.11670000
H      -48.03020000     -34.16670000     -68.48100000
H      -46.80770000     -35.44630000     -68.90690000
C      -47.41580000     -34.22650000     -70.63010000
C      -48.50990000     -33.56250000     -71.12400000
C      -46.58960000     -34.79460000     -71.69920000
H      -49.25950000     -32.95590000     -70.49500000
C      -47.08650000     -34.41220000     -73.00770000
C      -45.39050000     -35.58790000     -71.91310000
C      -45.06430000     -35.78000000     -73.26310000
S      -48.49370000     -33.38130000     -72.90680000
S      -46.18190000     -34.96880000     -74.33170000
H      -44.30140000     -36.38430000     -73.63650000
