40
Properties=species:S:1:pos:R:3 #=T CELL(abcABC):=T 1.889726e+02=T 90.00000=T Traj:=T positionsangstrom=T Step:=T 0=T Bead:=T pbc="F F F"
C      -41.51250000     -33.58000000     -69.98060000
C      -42.54370000     -33.40420000     -70.86250000
C      -43.77310000     -32.91960000     -70.44020000
C      -44.02070000     -32.53920000     -69.13650000
C      -42.98780000     -32.83680000     -68.20040000
C      -41.71220000     -33.23900000     -68.67010000
H      -40.51640000     -33.76790000     -70.34660000
H      -44.52830000     -32.62600000     -71.19190000
H      -43.15130000     -32.58440000     -67.11660000
H      -40.87910000     -33.18460000     -67.95120000
C      -45.40400000     -31.95180000     -68.88370000
H      -45.88150000     -31.59770000     -69.85020000
H      -45.41880000     -31.04840000     -68.15780000
C      -42.39090000     -33.70330000     -72.42770000
H      -43.14250000     -33.17590000     -73.01510000
H      -41.47370000     -33.42350000     -72.81270000
S      -46.63690000     -33.12350000     -68.08940000
S      -42.72890000     -35.49500000     -72.86070000
C      -46.78770000     -34.64140000     -69.14010000
H      -45.83880000     -34.93610000     -69.55220000
H      -47.12640000     -35.43340000     -68.44870000
C      -44.18200000     -35.87320000     -71.83200000
H      -44.21690000     -35.49210000     -70.79720000
H      -44.02960000     -36.93840000     -71.67370000
C      -45.60900000     -35.72230000     -72.54920000
H      -45.56100000     -36.34230000     -73.45270000
H      -46.41690000     -36.18670000     -71.93400000
C      -47.94070000     -34.47210000     -70.20830000
H      -48.86130000     -34.33280000     -69.59990000
H      -48.30600000     -35.38890000     -70.74170000
C      -47.74430000     -33.38320000     -71.23060000
C      -48.44030000     -32.20990000     -71.06550000
C      -46.85040000     -33.32670000     -72.36880000
H      -49.12350000     -31.88390000     -70.24670000
C      -46.85270000     -32.11540000     -73.07280000
C      -45.97420000     -34.30820000     -72.95830000
C      -45.43070000     -33.86600000     -74.11540000
S      -48.08560000     -31.09010000     -72.38000000
S      -45.98720000     -32.23870000     -74.56890000
H      -44.75820000     -34.37590000     -74.83400000
