40
Properties=species:S:1:pos:R:3 #=T CELL(abcABC):=T 1.889726e+02=T 90.00000=T Traj:=T positionsangstrom=T Step:=T 0=T Bead:=T pbc="F F F"
C      -42.23570000     -34.62170000     -69.82030000
C      -42.72350000     -33.80760000     -70.82960000
C      -43.80330000     -32.86890000     -70.48370000
C      -44.16680000     -32.75670000     -69.14840000
C      -43.47660000     -33.44000000     -68.12780000
C      -42.49490000     -34.42800000     -68.46710000
H      -41.59300000     -35.45630000     -70.09950000
H      -44.28420000     -32.48560000     -71.33840000
H      -43.73160000     -33.27430000     -67.04720000
H      -41.95230000     -34.92180000     -67.72250000
C      -45.39130000     -31.96760000     -68.75400000
H      -45.81710000     -31.38510000     -69.49600000
H      -45.33430000     -31.40350000     -67.80480000
C      -42.22350000     -34.08440000     -72.20340000
H      -42.55450000     -33.31780000     -72.91770000
H      -41.15010000     -34.15320000     -72.26300000
S      -46.79770000     -33.14290000     -68.16190000
S      -42.83330000     -35.74130000     -72.85030000
C      -46.82630000     -34.51360000     -69.32770000
H      -45.84630000     -34.79830000     -69.63560000
H      -47.24290000     -35.29760000     -68.72130000
C      -44.57810000     -35.92220000     -72.18190000
H      -44.55830000     -35.46210000     -71.16670000
H      -44.75760000     -37.03070000     -71.98100000
C      -45.83940000     -35.40960000     -73.07240000
H      -45.77800000     -35.98450000     -74.03660000
H      -46.70110000     -35.78610000     -72.46790000
C      -47.75990000     -34.47930000     -70.54450000
H      -48.75010000     -34.71470000     -70.31100000
H      -47.52810000     -35.40260000     -71.06220000
C      -47.58320000     -33.24950000     -71.34030000
C      -48.24560000     -32.05750000     -71.09680000
C      -46.64270000     -33.05400000     -72.45760000
H      -48.86160000     -32.00450000     -70.26470000
C      -46.61210000     -31.74000000     -73.01200000
C      -45.81870000     -33.96450000     -73.22600000
C      -45.08970000     -33.30590000     -74.18600000
S      -47.76760000     -30.73770000     -72.08920000
S      -45.48230000     -31.60980000     -74.32550000
H      -44.39380000     -33.79510000     -74.86120000
