40
Properties=species:S:1:pos:R:3 #=T CELL(abcABC):=T 1.889726e+02=T 90.00000=T Traj:=T positionsangstrom=T Step:=T 0=T Bead:=T pbc="F F F"
C      -46.33590000     -36.20310000     -68.63240000
C      -47.22600000     -35.77340000     -69.58810000
C      -47.76750000     -34.49510000     -69.44670000
C      -47.48460000     -33.68440000     -68.36090000
C      -46.69680000     -34.20540000     -67.32460000
C      -45.94430000     -35.41220000     -67.53800000
H      -45.72430000     -37.05640000     -68.79730000
H      -48.47550000     -33.97350000     -70.11370000
H      -46.49910000     -33.62130000     -66.43120000
H      -45.32130000     -35.83670000     -66.77480000
C      -48.18750000     -32.37520000     -68.35470000
H      -48.43730000     -32.18660000     -67.27400000
H      -49.13110000     -32.42550000     -68.81360000
C      -47.60210000     -36.67570000     -70.76610000
H      -48.20050000     -37.53840000     -70.42130000
H      -48.28410000     -35.94580000     -71.29590000
S      -47.11040000     -30.94870000     -68.87380000
S      -46.16010000     -37.15960000     -71.75200000
C      -46.19030000     -31.35700000     -70.42540000
H      -46.60640000     -32.26900000     -70.75860000
H      -46.49510000     -30.50170000     -71.07150000
C      -45.62050000     -35.66580000     -72.67780000
H      -46.51970000     -35.14940000     -73.12150000
H      -44.92850000     -36.15740000     -73.37560000
C      -44.83700000     -34.62500000     -71.91550000
H      -45.56940000     -34.03860000     -71.32840000
H      -44.26000000     -35.26870000     -71.25780000
C      -44.66770000     -31.27140000     -70.37440000
H      -44.18460000     -32.14550000     -69.81040000
H      -44.32210000     -30.35400000     -69.87690000
C      -44.11240000     -31.33450000     -71.84840000
C      -43.70980000     -30.10950000     -72.37120000
C      -43.72410000     -32.40370000     -72.73520000
H      -43.81050000     -29.19330000     -71.97040000
C      -43.12360000     -31.93670000     -73.92810000
C      -43.90870000     -33.84100000     -72.79610000
C      -43.33080000     -34.34590000     -73.94570000
S      -42.90270000     -30.20220000     -73.91720000
S      -42.74630000     -33.14250000     -75.05810000
H      -43.34370000     -35.44340000     -74.10150000
