40
Properties=species:S:1:pos:R:3 #=T CELL(abcABC):=T 1.889726e+02=T 90.00000=T Traj:=T positionsangstrom=T Step:=T 0=T Bead:=T pbc="F F F"
C      -44.46960000     -35.29820000     -74.58220000
C      -44.08950000     -33.93130000     -74.28810000
C      -45.05930000     -32.94550000     -74.25960000
C      -46.39580000     -33.25650000     -74.62320000
C      -46.70740000     -34.61200000     -74.90220000
C      -45.73030000     -35.57500000     -74.98990000
H      -43.74400000     -36.15270000     -74.66070000
H      -44.84080000     -31.93680000     -73.99730000
H      -47.71880000     -34.82010000     -75.26720000
H      -46.00050000     -36.53960000     -75.26280000
C      -47.49950000     -32.26980000     -74.69560000
H      -48.45060000     -32.81760000     -74.63700000
H      -47.61970000     -31.85100000     -75.73720000
C      -42.70330000     -33.62870000     -74.00740000
H      -42.09200000     -33.99540000     -74.85510000
H      -42.55760000     -32.51690000     -73.84890000
S      -47.40650000     -30.92560000     -73.50770000
S      -41.99690000     -34.55960000     -72.51860000
C      -47.66200000     -31.72850000     -71.87730000
H      -48.12660000     -30.91660000     -71.33070000
H      -48.32600000     -32.60840000     -71.93270000
C      -43.16840000     -34.32100000     -71.07320000
H      -42.91000000     -35.01570000     -70.31940000
H      -44.22620000     -34.56720000     -71.35230000
C      -43.26330000     -32.85760000     -70.52610000
H      -42.18890000     -32.59030000     -70.43900000
H      -43.82460000     -32.30440000     -71.28120000
C      -46.31070000     -32.11370000     -71.22440000
H      -45.72580000     -31.23700000     -71.26620000
H      -45.88100000     -32.90060000     -71.92010000
C      -46.47850000     -32.74980000     -69.90000000
C      -47.70650000     -33.04070000     -69.25150000
C      -45.33960000     -33.12020000     -69.04090000
H      -48.74630000     -33.01200000     -69.62660000
C      -45.72690000     -33.59700000     -67.78830000
C      -43.93730000     -33.08190000     -69.18180000
C      -43.30030000     -33.61220000     -68.09860000
S      -47.45480000     -33.71320000     -67.60440000
S      -44.37220000     -34.04760000     -66.77000000
H      -42.26010000     -33.65230000     -67.96750000
