40
Properties=species:S:1:pos:R:3 #=T CELL(abcABC):=T 1.889726e+02=T 90.00000=T Traj:=T positionsangstrom=T Step:=T 0=T Bead:=T pbc="F F F"
C      -45.96410000     -36.77700000     -69.83270000
C      -47.18800000     -36.25110000     -70.35650000
C      -47.80060000     -35.09090000     -69.75700000
C      -47.14900000     -34.47460000     -68.63460000
C      -45.86860000     -34.98950000     -68.24180000
C      -45.30000000     -36.15330000     -68.76610000
H      -45.50790000     -37.69840000     -70.29640000
H      -48.71120000     -34.59960000     -70.12740000
H      -45.43080000     -34.45960000     -67.39950000
H      -44.29860000     -36.58380000     -68.34700000
C      -47.72530000     -33.24690000     -67.95100000
H      -47.99830000     -33.41350000     -66.88240000
H      -48.53660000     -32.79350000     -68.49020000
C      -47.84820000     -36.83360000     -71.55430000
H      -47.97040000     -37.93850000     -71.47520000
H      -48.83240000     -36.32530000     -71.75540000
S      -46.47730000     -31.92970000     -67.62010000
S      -46.69190000     -36.56140000     -73.05010000
C      -45.83550000     -31.15810000     -69.19630000
H      -46.47150000     -30.37080000     -69.60030000
H      -44.87740000     -30.64470000     -68.96990000
C      -46.27640000     -34.71960000     -72.79340000
H      -47.04810000     -34.24920000     -72.19250000
H      -46.36010000     -34.20090000     -73.79380000
C      -44.76120000     -34.69960000     -72.47330000
H      -44.52980000     -34.44190000     -71.49410000
H      -44.30080000     -35.58690000     -72.79550000
C      -45.60910000     -32.04670000     -70.45060000
H      -46.45550000     -32.35980000     -70.99160000
H      -45.06890000     -32.98900000     -70.20950000
C      -44.62730000     -31.37820000     -71.47590000
C      -44.17280000     -30.05580000     -71.45410000
C      -44.11260000     -32.15820000     -72.63620000
H      -44.44890000     -29.12880000     -70.81820000
C      -43.28570000     -31.33010000     -73.42860000
C      -44.05050000     -33.50750000     -73.08580000
C      -43.21010000     -33.68310000     -74.17570000
S      -43.21020000     -29.65900000     -72.90890000
S      -42.43270000     -32.13580000     -74.69500000
H      -42.92740000     -34.62580000     -74.63120000
