40
Properties=species:S:1:pos:R:3 #=T CELL(abcABC):=T 1.889726e+02=T 90.00000=T Traj:=T positionsangstrom=T Step:=T 0=T Bead:=T pbc="F F F"
C      -45.93810000     -36.45920000     -69.50840000
C      -46.96500000     -35.88910000     -70.17960000
C      -47.57070000     -34.71770000     -69.66150000
C      -47.16240000     -34.18510000     -68.45340000
C      -46.02610000     -34.68130000     -67.85340000
C      -45.42420000     -35.83010000     -68.36830000
H      -45.62730000     -37.38950000     -69.80290000
H      -48.41120000     -34.29360000     -70.28020000
H      -45.61230000     -34.25380000     -66.90000000
H      -44.64220000     -36.28830000     -67.88040000
C      -47.77700000     -32.84950000     -67.94690000
H      -48.05320000     -32.93880000     -66.87160000
H      -48.59460000     -32.57730000     -68.53850000
C      -47.77210000     -36.54620000     -71.35230000
H      -48.18180000     -37.53030000     -71.08920000
H      -48.59160000     -35.90420000     -71.65610000
S      -46.47700000     -31.51590000     -67.82150000
S      -46.75520000     -36.79020000     -72.90370000
C      -45.81980000     -31.08980000     -69.49100000
H      -46.59330000     -31.03380000     -70.22520000
H      -45.40470000     -30.07100000     -69.39130000
C      -46.24520000     -35.00260000     -73.00130000
H      -46.96330000     -34.26560000     -72.59370000
H      -46.19680000     -34.73080000     -74.08750000
C      -44.87110000     -34.74530000     -72.25100000
H      -44.95880000     -34.49900000     -71.20010000
H      -44.28240000     -35.64300000     -72.44350000
C      -44.76970000     -31.93610000     -70.07490000
H      -45.15300000     -32.94250000     -70.13250000
H      -43.91030000     -31.98490000     -69.30700000
C      -44.25590000     -31.56460000     -71.44610000
C      -43.93160000     -30.22860000     -71.67470000
C      -43.94760000     -32.33830000     -72.59060000
H      -44.01030000     -29.48550000     -70.95170000
C      -43.44950000     -31.60630000     -73.60540000
C      -44.11730000     -33.74070000     -72.99110000
C      -43.45310000     -33.99270000     -74.14420000
S      -43.16550000     -29.92070000     -73.22180000
S      -42.93100000     -32.53990000     -75.02620000
H      -43.50490000     -34.99430000     -74.57180000
