40
Properties=species:S:1:pos:R:3 #=T CELL(abcABC):=T 1.889726e+02=T 90.00000=T Traj:=T positionsangstrom=T Step:=T 0=T Bead:=T pbc="F F F"
C      -44.32710000     -35.30350000     -74.57190000
C      -44.03270000     -33.98570000     -74.26210000
C      -45.00420000     -33.00800000     -74.34820000
C      -46.35790000     -33.37060000     -74.57890000
C      -46.63370000     -34.71830000     -74.86290000
C      -45.60960000     -35.65180000     -74.93100000
H      -43.56090000     -36.08370000     -74.59490000
H      -44.76610000     -31.94190000     -74.21930000
H      -47.62110000     -35.02210000     -75.07260000
H      -45.70590000     -36.69350000     -75.10410000
C      -47.48650000     -32.33950000     -74.73100000
H      -48.43190000     -32.85620000     -74.88460000
H      -47.29320000     -31.81210000     -75.63650000
C      -42.67430000     -33.42130000     -73.90460000
H      -42.04080000     -33.43190000     -74.77510000
H      -42.81400000     -32.42330000     -73.54140000
S      -47.62580000     -31.00900000     -73.47830000
S      -41.87090000     -34.44360000     -72.59470000
C      -47.80090000     -31.99340000     -71.95560000
H      -48.39140000     -31.38450000     -71.28090000
H      -48.39280000     -32.91440000     -72.10430000
C      -43.18610000     -34.21470000     -71.30790000
H      -43.14270000     -35.07310000     -70.64900000
H      -44.12050000     -34.19720000     -71.84220000
C      -43.04580000     -32.95520000     -70.48300000
H      -42.13490000     -32.71760000     -70.05360000
H      -43.29700000     -32.01430000     -70.92100000
C      -46.44670000     -32.22460000     -71.37960000
H      -45.81100000     -31.39220000     -71.42200000
H      -45.91380000     -33.04520000     -71.95200000
C      -46.54840000     -32.81680000     -69.90350000
C      -47.73630000     -33.04140000     -69.16760000
C      -45.37030000     -33.15900000     -69.09530000
H      -48.74190000     -33.06230000     -69.55360000
C      -45.74850000     -33.53980000     -67.80200000
C      -43.94220000     -33.06330000     -69.15910000
C      -43.29990000     -33.44090000     -68.03420000
S      -47.46680000     -33.66120000     -67.55370000
S      -44.40460000     -33.94010000     -66.71720000
H      -42.22240000     -33.42820000     -67.89780000
