40
Properties=species:S:1:pos:R:3 #=T CELL(abcABC):=T 1.889726e+02=T 90.00000=T Traj:=T positionsangstrom=T Step:=T 0=T Bead:=T pbc="F F F"
C      -42.26700000     -34.78490000     -69.68380000
C      -42.91750000     -34.01680000     -70.68940000
C      -43.95840000     -33.14280000     -70.35140000
C      -44.36990000     -33.00040000     -69.04960000
C      -43.77750000     -33.74800000     -68.06260000
C      -42.69030000     -34.63360000     -68.34260000
H      -41.44690000     -35.40240000     -69.89070000
H      -44.35020000     -32.39740000     -71.08600000
H      -44.10170000     -33.65730000     -67.00320000
H      -42.21750000     -35.18230000     -67.59210000
C      -45.51550000     -32.06130000     -68.85580000
H      -45.81230000     -31.68160000     -69.84750000
H      -45.27060000     -31.14480000     -68.24080000
C      -42.48640000     -34.06350000     -72.14750000
H      -43.04860000     -33.28640000     -72.73370000
H      -41.43410000     -33.81660000     -72.09970000
S      -46.89370000     -33.07670000     -68.11210000
S      -42.75680000     -35.82120000     -72.95070000
C      -46.90100000     -34.48430000     -69.31370000
H      -45.81440000     -34.68160000     -69.48400000
H      -47.12360000     -35.37080000     -68.64180000
C      -44.52200000     -36.01030000     -72.45950000
H      -44.62430000     -35.76720000     -71.40090000
H      -44.69870000     -37.04740000     -72.54040000
C      -45.55170000     -35.38660000     -73.41460000
H      -45.38920000     -35.71090000     -74.40840000
H      -46.55390000     -35.68380000     -73.25180000
C      -47.79080000     -34.38460000     -70.51140000
H      -48.79090000     -34.28050000     -70.13690000
H      -47.69190000     -35.27030000     -71.16230000
C      -47.42340000     -33.16010000     -71.33810000
C      -47.98010000     -31.92440000     -70.95860000
C      -46.54270000     -33.09900000     -72.50640000
H      -48.84470000     -31.75430000     -70.29920000
C      -46.55250000     -31.76920000     -72.99400000
C      -45.70880000     -33.87020000     -73.36710000
C      -45.06620000     -33.09140000     -74.31220000
S      -47.48900000     -30.63850000     -72.02140000
S      -45.52690000     -31.36810000     -74.26040000
H      -44.36300000     -33.50130000     -75.06380000
