40
Properties=species:S:1:pos:R:3 #=T CELL(abcABC):=T 1.889726e+02=T 90.00000=T Traj:=T positionsangstrom=T Step:=T 0=T Bead:=T pbc="F F F"
C      -49.68460000     -34.40500000     -71.43360000
C      -48.45310000     -35.06500000     -71.65400000
C      -47.64830000     -35.40080000     -70.53730000
C      -47.89500000     -34.96850000     -69.25450000
C      -49.11970000     -34.34220000     -69.00890000
C      -49.98370000     -34.04310000     -70.09800000
H      -50.33610000     -34.16790000     -72.30810000
H      -46.73560000     -36.04120000     -70.71420000
H      -49.39700000     -33.98390000     -68.04130000
H      -50.94660000     -33.55420000     -70.00770000
C      -46.81890000     -35.18150000     -68.23010000
H      -46.08690000     -35.94470000     -68.56590000
H      -47.33510000     -35.59720000     -67.32340000
C      -48.12920000     -35.50020000     -73.04050000
H      -47.39920000     -36.27310000     -73.25140000
H      -49.06710000     -35.81700000     -73.55870000
S      -45.90540000     -33.72250000     -67.67810000
S      -47.75450000     -33.93340000     -74.09970000
C      -45.52620000     -33.07020000     -69.43190000
H      -46.44690000     -32.85140000     -69.95650000
H      -45.00680000     -32.10430000     -69.24990000
C      -45.90700000     -33.78170000     -73.63740000
H      -45.29840000     -34.08190000     -74.47230000
H      -45.75230000     -34.49250000     -72.79030000
C      -45.58780000     -32.33720000     -73.06930000
H      -46.06810000     -31.56310000     -73.58840000
H      -46.07950000     -32.38820000     -72.13140000
C      -44.56960000     -34.03650000     -70.19920000
H      -45.06470000     -34.42930000     -71.12070000
H      -44.29510000     -34.84000000     -69.57200000
C      -43.25590000     -33.27120000     -70.66940000
C      -42.03190000     -33.38000000     -70.10730000
C      -43.19450000     -32.48950000     -71.84220000
H      -41.79480000     -33.82540000     -69.15460000
C      -41.86860000     -32.07630000     -72.12890000
C      -44.08020000     -31.98880000     -72.88420000
C      -43.49420000     -31.10460000     -73.76760000
S      -40.77020000     -32.52590000     -70.92630000
S      -41.73450000     -30.89280000     -73.47920000
H      -43.86780000     -30.52490000     -74.60650000
