40
Properties=species:S:1:pos:R:3 #=T CELL(abcABC):=T 1.889726e+02=T 90.00000=T Traj:=T positionsangstrom=T Step:=T 0=T Bead:=T pbc="F F F"
C      -49.58410000     -34.29910000     -70.91310000
C      -48.48390000     -34.92740000     -71.52230000
C      -47.45740000     -35.43450000     -70.79120000
C      -47.50110000     -35.28850000     -69.36130000
C      -48.69460000     -34.89450000     -68.72720000
C      -49.64960000     -34.25240000     -69.50140000
H      -50.43000000     -33.87030000     -71.56720000
H      -46.55530000     -35.77040000     -71.29860000
H      -48.81140000     -34.97450000     -67.69280000
H      -50.48270000     -33.69320000     -69.11710000
C      -46.49800000     -36.00240000     -68.51020000
H      -45.88380000     -36.66120000     -69.19680000
H      -46.89920000     -36.57870000     -67.73620000
C      -48.43990000     -35.00890000     -73.01180000
H      -47.65810000     -35.72500000     -73.36090000
H      -49.39340000     -35.55970000     -73.40730000
S      -45.29140000     -34.76830000     -67.77840000
S      -48.13500000     -33.48000000     -74.01200000
C      -44.84010000     -33.53810000     -69.25400000
H      -45.71400000     -33.12680000     -69.67180000
H      -44.30020000     -32.81750000     -68.70480000
C      -46.30790000     -33.11450000     -74.03130000
H      -46.29370000     -32.34010000     -74.86740000
H      -45.74130000     -34.01400000     -74.36450000
C      -45.81270000     -32.47740000     -72.70520000
H      -46.48960000     -31.65950000     -72.34500000
H      -45.93530000     -33.31030000     -71.89940000
C      -43.91010000     -34.35710000     -70.20490000
H      -44.62030000     -34.89460000     -70.80920000
H      -43.27320000     -34.93660000     -69.58980000
C      -43.03870000     -33.49220000     -71.02060000
C      -41.72700000     -33.44180000     -70.55910000
C      -43.32180000     -32.34220000     -71.86860000
H      -41.20680000     -34.19540000     -69.99910000
C      -42.21520000     -31.54040000     -72.12950000
C      -44.40240000     -31.97890000     -72.69770000
C      -44.11920000     -30.90950000     -73.54070000
S      -40.79800000     -32.12510000     -71.28110000
S      -42.48420000     -30.31700000     -73.37260000
H      -44.81620000     -30.35560000     -74.16700000
