40
Properties=species:S:1:pos:R:3 #=T CELL(abcABC):=T 1.889726e+02=T 90.00000=T Traj:=T positionsangstrom=T Step:=T 0=T Bead:=T pbc="F F F"
C      -49.45040000     -34.26150000     -71.09700000
C      -48.45730000     -35.04560000     -71.63010000
C      -47.35620000     -35.54710000     -70.85600000
C      -47.43950000     -35.28270000     -69.51570000
C      -48.49400000     -34.57940000     -68.90770000
C      -49.47450000     -33.97970000     -69.71710000
H      -50.13040000     -33.76780000     -71.72300000
H      -46.49570000     -36.09800000     -71.30840000
H      -48.36250000     -34.27820000     -67.77750000
H      -50.23790000     -33.26970000     -69.28960000
C      -46.30230000     -35.79300000     -68.69110000
H      -45.62810000     -36.36860000     -69.26790000
H      -46.67410000     -36.52550000     -67.98630000
C      -48.41240000     -35.11910000     -73.11570000
H      -47.66500000     -35.94450000     -73.49440000
H      -49.36660000     -35.51430000     -73.52440000
S      -45.45290000     -34.49760000     -67.64890000
S      -48.36270000     -33.40590000     -74.00630000
C      -44.65290000     -33.47810000     -68.99750000
H      -45.33360000     -32.83750000     -69.47910000
H      -43.86430000     -32.91890000     -68.50460000
C      -46.51780000     -33.16740000     -73.93080000
H      -46.29830000     -32.37240000     -74.65170000
H      -46.04130000     -34.10520000     -74.37040000
C      -45.85890000     -32.89890000     -72.52470000
H      -46.55960000     -32.23690000     -72.04560000
H      -45.70250000     -33.76170000     -71.96240000
C      -43.89420000     -34.35190000     -70.04430000
H      -44.45600000     -34.95160000     -70.72290000
H      -43.28160000     -35.09500000     -69.53800000
C      -42.95010000     -33.45830000     -70.77760000
C      -41.57720000     -33.48170000     -70.69110000
C      -43.30230000     -32.57240000     -71.88480000
H      -41.07780000     -33.97830000     -69.85700000
C      -42.23690000     -31.75030000     -72.26210000
C      -44.50430000     -32.11490000     -72.53670000
C      -44.26600000     -31.07790000     -73.41920000
S      -40.71180000     -32.05080000     -71.31700000
S      -42.57520000     -30.47890000     -73.38410000
H      -45.00260000     -30.77780000     -74.11780000
