40
Properties=species:S:1:pos:R:3 #=T CELL(abcABC):=T 1.889726e+02=T 90.00000=T Traj:=T positionsangstrom=T Step:=T 0=T Bead:=T pbc="F F F"
C      -49.48150000     -34.26210000     -71.04340000
C      -48.39570000     -35.04280000     -71.67200000
C      -47.45380000     -35.68700000     -70.77960000
C      -47.61700000     -35.49790000     -69.40520000
C      -48.71800000     -34.85260000     -68.83920000
C      -49.67310000     -34.27480000     -69.67550000
H      -50.05480000     -33.59060000     -71.69360000
H      -46.55780000     -36.14010000     -71.16180000
H      -48.93430000     -34.82490000     -67.74710000
H      -50.44660000     -33.81660000     -69.07950000
C      -46.61100000     -36.11710000     -68.46610000
H      -46.12870000     -37.01410000     -68.84320000
H      -47.02180000     -36.22920000     -67.40490000
C      -48.23340000     -35.06720000     -73.18510000
H      -47.34910000     -35.70980000     -73.46510000
H      -49.07350000     -35.32660000     -73.71310000
S      -45.29820000     -34.94980000     -67.89020000
S      -48.00080000     -33.38130000     -73.90900000
C      -44.93890000     -33.77140000     -69.22870000
H      -45.87700000     -33.54160000     -69.75640000
H      -44.54410000     -32.85640000     -68.77060000
C      -46.30110000     -32.89460000     -73.76790000
H      -46.22330000     -32.12790000     -74.54000000
H      -45.61800000     -33.76210000     -74.08630000
C      -45.97910000     -32.24100000     -72.38450000
H      -46.78070000     -31.51520000     -71.94020000
H      -45.86080000     -33.07040000     -71.65940000
C      -43.90260000     -34.32080000     -70.16580000
H      -44.36240000     -34.93770000     -70.89070000
H      -43.24680000     -34.98840000     -69.65190000
C      -43.06540000     -33.33040000     -70.89550000
C      -41.73060000     -33.37900000     -70.59570000
C      -43.34550000     -32.26490000     -71.79710000
H      -41.35400000     -33.97530000     -69.77300000
C      -42.20050000     -31.53010000     -72.11990000
C      -44.56180000     -31.73590000     -72.48910000
C      -44.18510000     -30.84670000     -73.50460000
S      -40.76660000     -32.06000000     -71.37440000
S      -42.50280000     -30.38520000     -73.43800000
H      -44.87900000     -30.51330000     -74.28430000
