40
Properties=species:S:1:pos:R:3 #=T CELL(abcABC):=T 1.889726e+02=T 90.00000=T Traj:=T positionsangstrom=T Step:=T 0=T Bead:=T pbc="F F F"
C      -43.49060000     -36.54430000     -71.03900000
C      -43.53950000     -35.15760000     -70.95540000
C      -44.66660000     -34.59860000     -70.30690000
C      -45.59000000     -35.39840000     -69.64610000
C      -45.37890000     -36.77870000     -69.58520000
C      -44.37260000     -37.38560000     -70.33840000
H      -42.77910000     -37.01710000     -71.66930000
H      -44.80580000     -33.55040000     -70.29210000
H      -46.18550000     -37.30260000     -69.06180000
H      -44.24920000     -38.43440000     -70.30990000
C      -46.85620000     -34.69310000     -69.15040000
H      -46.63000000     -33.61950000     -68.91550000
H      -47.06180000     -35.10850000     -68.22550000
C      -42.54420000     -34.17600000     -71.57020000
H      -42.83790000     -33.13490000     -71.33960000
H      -41.53490000     -34.38690000     -71.13890000
S      -48.34400000     -34.77730000     -70.24120000
S      -42.51690000     -34.44280000     -73.36430000
C      -47.78480000     -34.71300000     -71.97670000
H      -46.76010000     -35.07240000     -71.85660000
H      -48.43930000     -35.40770000     -72.58530000
C      -44.24370000     -34.09840000     -73.81930000
H      -44.88220000     -34.50700000     -73.02070000
H      -44.43740000     -34.70390000     -74.68990000
C      -44.54090000     -32.58350000     -74.10330000
H      -43.66580000     -32.05860000     -74.68420000
H      -45.42870000     -32.43970000     -74.76300000
C      -47.78210000     -33.26560000     -72.59520000
H      -48.87610000     -33.03110000     -72.59110000
H      -47.39000000     -33.25890000     -73.64070000
C      -47.08870000     -32.22360000     -71.77880000
C      -47.74430000     -31.78630000     -70.56700000
C      -45.75920000     -31.72740000     -71.89530000
H      -48.69060000     -32.01920000     -70.04550000
C      -45.40960000     -30.90120000     -70.82780000
C      -44.65490000     -31.75550000     -72.87690000
C      -43.60620000     -30.91580000     -72.49130000
S      -46.60560000     -30.83240000     -69.60060000
S      -43.88270000     -30.07540000     -70.92050000
H      -42.70840000     -30.61400000     -73.05000000
