40
Properties=species:S:1:pos:R:3 #=T CELL(abcABC):=T 1.889726e+02=T 90.00000=T Traj:=T positionsangstrom=T Step:=T 0=T Bead:=T pbc="F F F"
C      -43.18010000     -36.83680000     -71.22100000
C      -43.32920000     -35.42440000     -71.12140000
C      -44.56220000     -34.92700000     -70.79750000
C      -45.63190000     -35.80250000     -70.49800000
C      -45.42840000     -37.18200000     -70.40650000
C      -44.18790000     -37.71390000     -70.77810000
H      -42.24860000     -37.27530000     -71.48610000
H      -44.69290000     -33.92440000     -70.56600000
H      -46.05430000     -37.92120000     -69.95870000
H      -44.17730000     -38.78280000     -70.90670000
C      -46.93200000     -35.20890000     -69.88170000
H      -46.76810000     -34.20430000     -69.39820000
H      -47.31930000     -35.82140000     -69.10540000
C      -42.25490000     -34.49150000     -71.49600000
H      -42.34340000     -33.62930000     -70.79790000
H      -41.20460000     -34.85380000     -71.31080000
S      -48.27300000     -35.23150000     -71.11170000
S      -42.17450000     -33.87620000     -73.25050000
C      -47.48780000     -34.24640000     -72.43220000
H      -46.44810000     -34.34670000     -72.29360000
H      -47.74010000     -34.73770000     -73.37820000
C      -43.98390000     -33.83390000     -73.76420000
H      -44.39810000     -34.70190000     -73.28880000
H      -43.87510000     -33.96990000     -74.87980000
C      -44.87890000     -32.56070000     -73.63150000
H      -44.40280000     -31.84980000     -74.35830000
H      -45.90820000     -32.85210000     -73.87930000
C      -48.04990000     -32.73850000     -72.35420000
H      -49.09480000     -32.81830000     -72.25400000
H      -47.88270000     -32.32890000     -73.37460000
C      -47.40010000     -31.84340000     -71.33600000
C      -48.00120000     -31.29800000     -70.24750000
C      -45.97680000     -31.49920000     -71.48050000
H      -49.05010000     -31.62010000     -70.07100000
C      -45.60340000     -30.71140000     -70.35200000
C      -44.81410000     -31.84900000     -72.29090000
C      -43.69800000     -31.19750000     -71.86650000
S      -46.91080000     -30.41990000     -69.16800000
S      -43.89200000     -30.31260000     -70.37810000
H      -42.75940000     -31.28030000     -72.36220000
