40
Properties=species:S:1:pos:R:3 #=T CELL(abcABC):=T 1.889726e+02=T 90.00000=T Traj:=T positionsangstrom=T Step:=T 0=T Bead:=T pbc="F F F"
C      -43.12200000     -33.58190000     -72.34070000
C      -42.92980000     -33.59770000     -70.91790000
C      -43.27480000     -34.72120000     -70.20420000
C      -44.03500000     -35.77330000     -70.82280000
C      -44.15830000     -35.76120000     -72.15990000
C      -43.58940000     -34.72600000     -72.94070000
H      -42.69440000     -32.70000000     -72.93890000
H      -43.10860000     -34.82870000     -69.11980000
H      -44.49860000     -36.64360000     -72.61820000
H      -43.91720000     -34.67530000     -73.97490000
C      -44.74830000     -36.81210000     -70.01660000
H      -44.32650000     -36.95850000     -68.95850000
H      -44.86580000     -37.81190000     -70.44470000
C      -42.31630000     -32.37810000     -70.26960000
H      -41.29620000     -32.58800000     -69.96040000
H      -42.22210000     -31.53850000     -70.98090000
S      -46.55980000     -36.40800000     -69.77900000
S      -43.08600000     -31.71770000     -68.72310000
C      -46.54820000     -34.65550000     -69.41530000
H      -46.50970000     -34.55550000     -68.39680000
H      -45.57940000     -34.29600000     -69.83440000
C      -44.51120000     -30.52630000     -69.17390000
H      -44.15990000     -29.73090000     -69.77800000
H      -44.73020000     -30.13110000     -68.16830000
C      -45.72450000     -31.33040000     -69.80270000
H      -45.77430000     -32.36590000     -69.47450000
H      -46.68990000     -30.80420000     -69.43450000
C      -47.75720000     -33.94980000     -70.10280000
H      -48.01020000     -33.03270000     -69.46630000
H      -48.66310000     -34.60790000     -69.88910000
C      -47.44340000     -33.52710000     -71.53120000
C      -47.96530000     -34.26860000     -72.60620000
C      -46.58590000     -32.46260000     -71.91010000
H      -48.65110000     -35.09100000     -72.37310000
C      -46.49910000     -32.43510000     -73.36980000
C      -45.78160000     -31.45120000     -71.26910000
C      -45.17520000     -30.63710000     -72.20720000
S      -47.52280000     -33.66100000     -74.14790000
S      -45.48440000     -31.05620000     -73.90330000
H      -44.59690000     -29.70270000     -72.03750000
