40
Properties=species:S:1:pos:R:3 #=T CELL(abcABC):=T 1.889726e+02=T 90.00000=T Traj:=T positionsangstrom=T Step:=T 0=T Bead:=T pbc="F F F"
C      -44.25380000     -35.26810000     -74.33220000
C      -44.12370000     -33.87570000     -74.28130000
C      -45.29220000     -33.09240000     -74.54400000
C      -46.53170000     -33.59800000     -74.88330000
C      -46.62980000     -34.97210000     -74.72980000
C      -45.50570000     -35.80590000     -74.49330000
H      -43.37540000     -35.92130000     -74.26220000
H      -45.17560000     -32.04580000     -74.42900000
H      -47.55390000     -35.50650000     -74.94730000
H      -45.59270000     -36.87960000     -74.24650000
C      -47.68390000     -32.65080000     -74.94450000
H      -48.57080000     -33.17820000     -74.97220000
H      -47.68280000     -32.10880000     -75.93370000
C      -42.83120000     -33.18910000     -73.99850000
H      -42.18490000     -33.14940000     -74.89890000
H      -42.96740000     -32.13800000     -73.58740000
S      -47.58960000     -31.34690000     -73.57050000
S      -41.77240000     -33.94390000     -72.67860000
C      -47.76080000     -32.32610000     -72.02620000
H      -48.49250000     -31.76790000     -71.40890000
H      -48.16050000     -33.23910000     -72.32980000
C      -42.88050000     -34.20650000     -71.15740000
H      -42.29200000     -34.90300000     -70.53730000
H      -43.78330000     -34.64530000     -71.54750000
C      -43.09640000     -32.88930000     -70.42040000
H      -42.17070000     -32.34330000     -70.08780000
H      -43.68200000     -32.17480000     -70.99290000
C      -46.41830000     -32.49320000     -71.42020000
H      -45.87460000     -31.54690000     -71.41240000
H      -45.84580000     -33.21750000     -71.95890000
C      -46.53020000     -32.96230000     -69.90250000
C      -47.68190000     -33.04490000     -69.17930000
C      -45.41270000     -33.10020000     -69.03980000
H      -48.68860000     -32.97730000     -69.59640000
C      -45.77390000     -33.53350000     -67.74140000
C      -43.92410000     -33.16020000     -69.17170000
C      -43.30790000     -33.40810000     -68.03930000
S      -47.43500000     -33.49800000     -67.50970000
S      -44.42790000     -33.70760000     -66.66640000
H      -42.24280000     -33.65150000     -67.83710000
