40
Properties=species:S:1:pos:R:3 #=T CELL(abcABC):=T 1.889726e+02=T 90.00000=T Traj:=T positionsangstrom=T Step:=T 0=T Bead:=T pbc="F F F"
C      -43.00170000     -36.42650000     -71.48770000
C      -43.37490000     -35.13540000     -71.08110000
C      -44.69720000     -34.94240000     -70.60140000
C      -45.66890000     -35.95960000     -70.69950000
C      -45.26380000     -37.25410000     -71.05280000
C      -43.92410000     -37.43630000     -71.45690000
H      -41.97870000     -36.66600000     -71.78280000
H      -45.00210000     -33.91120000     -70.44600000
H      -46.04780000     -37.99720000     -70.97270000
H      -43.56770000     -38.42670000     -71.73940000
C      -47.14080000     -35.50570000     -70.45230000
H      -47.18740000     -34.52060000     -69.84820000
H      -47.64940000     -36.27350000     -69.74810000
C      -42.35840000     -34.02430000     -70.94270000
H      -42.72500000     -33.36080000     -70.15820000
H      -41.41390000     -34.46870000     -70.65060000
S      -48.28860000     -35.31430000     -71.83440000
S      -41.95600000     -33.01370000     -72.45600000
C      -47.24770000     -34.35790000     -73.06070000
H      -46.19990000     -34.40550000     -72.84620000
H      -47.45840000     -34.62560000     -74.11520000
C      -43.46610000     -33.03270000     -73.53820000
H      -44.09170000     -33.91450000     -73.25310000
H      -43.16730000     -33.18750000     -74.54990000
C      -44.29110000     -31.69940000     -73.43870000
H      -43.51160000     -31.02710000     -73.71310000
H      -45.21240000     -31.72460000     -74.06620000
C      -47.60360000     -32.82620000     -73.06600000
H      -48.70580000     -32.71320000     -73.16370000
H      -47.11510000     -32.29150000     -73.87470000
C      -47.20330000     -32.25880000     -71.71140000
C      -48.02400000     -32.28210000     -70.62690000
C      -45.94230000     -31.70260000     -71.38840000
H      -49.12730000     -32.45610000     -70.67010000
C      -45.90230000     -31.23360000     -70.06790000
C      -44.67870000     -31.36280000     -72.04310000
C      -43.84270000     -30.64760000     -71.21830000
S      -47.34010000     -31.62230000     -69.19190000
S      -44.43410000     -30.51340000     -69.57920000
H      -42.83590000     -30.33240000     -71.43820000
