40
Properties=species:S:1:pos:R:3 #=T CELL(abcABC):=T 1.889726e+02=T 90.00000=T Traj:=T positionsangstrom=T Step:=T 0=T Bead:=T pbc="F F F"
C      -43.29940000     -36.49130000     -71.60870000
C      -43.52590000     -35.16810000     -71.09310000
C      -44.81490000     -34.93530000     -70.52940000
C      -45.79580000     -35.96590000     -70.55700000
C      -45.58300000     -37.16050000     -71.19680000
C      -44.28120000     -37.51370000     -71.64230000
H      -42.30430000     -36.63350000     -72.03730000
H      -44.89760000     -34.08150000     -69.90370000
H      -46.39110000     -37.88500000     -71.33930000
H      -44.12400000     -38.52430000     -72.02500000
C      -47.21650000     -35.63220000     -70.02020000
H      -47.03510000     -34.67990000     -69.40550000
H      -47.69330000     -36.45860000     -69.38490000
C      -42.34460000     -34.16400000     -71.22200000
H      -42.37570000     -33.37700000     -70.47100000
H      -41.44020000     -34.63500000     -70.98340000
S      -48.41050000     -35.34680000     -71.44130000
S      -42.14680000     -33.47860000     -72.94210000
C      -47.38660000     -34.59650000     -72.76550000
H      -46.39760000     -35.10490000     -72.71830000
H      -47.78080000     -35.00060000     -73.69710000
C      -43.77400000     -33.24540000     -73.63570000
H      -44.52910000     -33.89170000     -73.23680000
H      -43.78940000     -33.40640000     -74.78130000
C      -44.18870000     -31.76050000     -73.46800000
H      -43.27340000     -31.13830000     -73.81970000
H      -44.94700000     -31.42590000     -74.21520000
C      -47.29010000     -33.02420000     -72.86740000
H      -48.33450000     -32.77200000     -72.97370000
H      -46.59630000     -32.69430000     -73.62920000
C      -46.83490000     -32.40760000     -71.54070000
C      -47.67400000     -32.43550000     -70.40030000
C      -45.69860000     -31.57390000     -71.34710000
H      -48.62360000     -32.93540000     -70.21300000
C      -45.76010000     -30.96480000     -70.06640000
C      -44.51760000     -31.23230000     -72.11290000
C      -43.68850000     -30.37030000     -71.40030000
S      -47.06030000     -31.39610000     -69.11780000
S      -44.37510000     -29.96240000     -69.74570000
H      -42.78190000     -29.95530000     -71.78870000
