40
Properties=species:S:1:pos:R:3 #=T CELL(abcABC):=T 1.889726e+02=T 90.00000=T Traj:=T positionsangstrom=T Step:=T 0=T Bead:=T pbc="F F F"
C      -43.41320000     -34.90850000     -68.93490000
C      -43.76590000     -33.63110000     -68.48180000
C      -45.10440000     -33.30200000     -68.15790000
C      -46.08170000     -34.29160000     -68.42650000
C      -45.75520000     -35.57280000     -68.86700000
C      -44.42190000     -35.82720000     -69.12870000
H      -42.39570000     -35.04600000     -69.22100000
H      -45.36350000     -32.26580000     -67.77990000
H      -46.52980000     -36.34060000     -69.08260000
H      -44.11370000     -36.71880000     -69.64070000
C      -47.52450000     -34.06100000     -67.86720000
H      -47.69450000     -33.27090000     -67.10630000
H      -47.87130000     -35.01350000     -67.43900000
C      -42.68120000     -32.59380000     -68.35250000
H      -42.71880000     -32.17450000     -67.34220000
H      -41.71450000     -33.10890000     -68.51250000
S      -48.75780000     -33.58880000     -69.13770000
S      -42.82980000     -31.11990000     -69.55860000
C      -48.11260000     -34.18390000     -70.74630000
H      -47.77390000     -35.20590000     -70.60350000
H      -49.01130000     -34.31760000     -71.34670000
C      -43.27560000     -31.95370000     -71.13960000
H      -43.36540000     -33.03480000     -70.92410000
H      -42.34560000     -31.90180000     -71.70720000
C      -44.38550000     -31.18200000     -71.87010000
H      -45.27010000     -31.08270000     -71.31250000
H      -43.94120000     -30.17490000     -72.08750000
C      -47.02990000     -33.21710000     -71.34140000
H      -46.25470000     -32.93290000     -70.65630000
H      -47.49930000     -32.22330000     -71.50420000
C      -46.46110000     -33.79400000     -72.60350000
C      -46.76710000     -34.96390000     -73.22920000
C      -45.44450000     -33.02650000     -73.34870000
H      -47.46550000     -35.66790000     -72.93360000
C      -45.23380000     -33.56570000     -74.58180000
C      -44.75140000     -31.75640000     -73.25140000
C      -44.06000000     -31.47420000     -74.40380000
S      -45.95580000     -35.20890000     -74.69600000
S      -44.17630000     -32.69160000     -75.65620000
H      -43.58640000     -30.55820000     -74.68530000
