40
Properties=species:S:1:pos:R:3 #=T CELL(abcABC):=T 1.889726e+02=T 90.00000=T Traj:=T positionsangstrom=T Step:=T 0=T Bead:=T pbc="F F F"
C      -43.18590000     -36.70350000     -71.44510000
C      -43.43390000     -35.37910000     -70.99460000
C      -44.66790000     -35.09590000     -70.37040000
C      -45.74460000     -36.04470000     -70.39960000
C      -45.45960000     -37.27890000     -71.02280000
C      -44.21380000     -37.59810000     -71.45280000
H      -42.19570000     -37.01410000     -71.78520000
H      -44.76110000     -34.04700000     -69.94550000
H      -46.26860000     -37.99250000     -71.13980000
H      -44.00440000     -38.53660000     -72.02430000
C      -47.14990000     -35.68270000     -69.94150000
H      -47.24900000     -34.86530000     -69.20980000
H      -47.57130000     -36.59050000     -69.41950000
C      -42.45100000     -34.24500000     -71.15690000
H      -42.83310000     -33.35160000     -70.70720000
H      -41.47490000     -34.41580000     -70.68870000
S      -48.36320000     -35.40780000     -71.41020000
S      -42.16260000     -33.78710000     -72.95290000
C      -47.48440000     -34.41870000     -72.74240000
H      -46.37320000     -34.56140000     -72.74020000
H      -47.92230000     -34.82040000     -73.70900000
C      -43.91150000     -33.43780000     -73.46990000
H      -44.63440000     -33.96660000     -72.70510000
H      -44.02540000     -33.86800000     -74.47540000
C      -44.40360000     -31.99210000     -73.62990000
H      -43.73990000     -31.38520000     -74.27810000
H      -45.48540000     -32.09350000     -74.03040000
C      -47.72680000     -32.94620000     -72.62490000
H      -48.80910000     -32.77250000     -72.59870000
H      -47.46070000     -32.46290000     -73.53600000
C      -47.07980000     -32.17870000     -71.42480000
C      -47.90380000     -31.84250000     -70.39960000
C      -45.74860000     -31.56460000     -71.35230000
H      -48.84290000     -32.24740000     -70.14880000
C      -45.62010000     -30.77760000     -70.20340000
C      -44.54580000     -31.40470000     -72.22480000
C      -43.59400000     -30.66440000     -71.64740000
S      -47.02010000     -30.78620000     -69.16780000
S      -44.10990000     -29.94910000     -70.12600000
H      -42.62950000     -30.37700000     -71.99840000
