40
Properties=species:S:1:pos:R:3 #=T CELL(abcABC):=T 1.889726e+02=T 90.00000=T Traj:=T positionsangstrom=T Step:=T 0=T Bead:=T pbc="F F F"
C      -42.79610000     -36.38710000     -71.71790000
C      -43.27230000     -35.18560000     -71.12800000
C      -44.63550000     -35.02620000     -70.82860000
C      -45.54190000     -36.12030000     -71.00680000
C      -44.99210000     -37.39840000     -71.51770000
C      -43.64440000     -37.53130000     -71.85860000
H      -41.76640000     -36.36320000     -71.84240000
H      -44.98880000     -34.05160000     -70.45550000
H      -45.63580000     -38.27150000     -71.70570000
H      -43.29090000     -38.51010000     -72.14370000
C      -47.02070000     -35.96310000     -70.84190000
H      -47.23250000     -35.05970000     -70.16110000
H      -47.53990000     -36.85250000     -70.40190000
C      -42.26040000     -34.04070000     -70.93130000
H      -42.59190000     -33.33430000     -70.19650000
H      -41.28000000     -34.43510000     -70.57150000
S      -47.84620000     -35.63710000     -72.51410000
S      -41.93120000     -32.95150000     -72.31830000
C      -47.02830000     -34.12030000     -73.22280000
H      -46.02390000     -34.18280000     -73.01010000
H      -47.16210000     -34.36940000     -74.30260000
C      -43.54420000     -32.92280000     -73.32250000
H      -44.05960000     -33.84410000     -73.19360000
H      -43.18550000     -32.84530000     -74.32470000
C      -44.35540000     -31.61040000     -73.15520000
H      -43.62660000     -30.88360000     -73.46760000
H      -45.23600000     -31.45350000     -73.81920000
C      -47.67100000     -32.77690000     -72.81090000
H      -48.70980000     -32.68880000     -72.83840000
H      -47.31690000     -32.10460000     -73.56550000
C      -47.32720000     -32.22490000     -71.44740000
C      -48.27240000     -32.27880000     -70.42240000
C      -46.05520000     -31.61280000     -71.13900000
H      -49.24980000     -32.63670000     -70.61350000
C      -46.16250000     -31.14480000     -69.81070000
C      -44.75030000     -31.34260000     -71.69460000
C      -43.88760000     -30.69670000     -70.85440000
S      -47.74140000     -31.42670000     -68.97370000
S      -44.69400000     -30.33790000     -69.32460000
H      -42.86350000     -30.40810000     -70.87800000
