40
Properties=species:S:1:pos:R:3 #=T CELL(abcABC):=T 1.889726e+02=T 90.00000=T Traj:=T positionsangstrom=T Step:=T 0=T Bead:=T pbc="F F F"
C      -42.24430000     -35.79120000     -71.80480000
C      -43.01330000     -34.88840000     -71.09670000
C      -44.36790000     -35.06130000     -70.99530000
C      -44.99260000     -36.12980000     -71.55290000
C      -44.24820000     -36.96460000     -72.44870000
C      -42.87550000     -36.78240000     -72.61490000
H      -41.18580000     -35.77120000     -71.88790000
H      -44.94950000     -34.36240000     -70.36090000
H      -44.80300000     -37.80790000     -72.80400000
H      -42.26450000     -37.47040000     -73.12330000
C      -46.39310000     -36.37800000     -71.37240000
H      -46.69540000     -35.95450000     -70.42540000
H      -46.59830000     -37.47280000     -71.48240000
C      -42.39740000     -33.64810000     -70.46060000
H      -42.99540000     -33.20630000     -69.65480000
H      -41.44010000     -33.80390000     -70.02810000
S      -47.65620000     -35.70120000     -72.52800000
S      -42.02690000     -32.34160000     -71.65810000
C      -46.85830000     -34.35340000     -73.39880000
H      -45.82750000     -34.29840000     -73.19460000
H      -46.91010000     -34.61170000     -74.44280000
C      -43.43200000     -32.35940000     -72.89060000
H      -43.85010000     -33.34820000     -72.76470000
H      -42.99220000     -32.14420000     -73.90120000
C      -44.41550000     -31.17920000     -72.79850000
H      -43.83760000     -30.27990000     -72.96300000
H      -45.11840000     -31.34260000     -73.54110000
C      -47.42500000     -32.91800000     -73.16460000
H      -48.53200000     -32.90980000     -73.43430000
H      -46.86730000     -32.15610000     -73.67960000
C      -47.36180000     -32.54800000     -71.78310000
C      -48.40590000     -32.75130000     -70.94180000
C      -46.28710000     -31.83730000     -71.03940000
H      -49.23820000     -33.42040000     -71.14500000
C      -46.57430000     -31.70880000     -69.66520000
C      -45.05660000     -31.14180000     -71.39930000
C      -44.45770000     -30.52290000     -70.32720000
S      -48.18740000     -32.24130000     -69.24950000
S      -45.37340000     -30.66590000     -68.87810000
H      -43.58020000     -29.86450000     -70.29460000
