40
Properties=species:S:1:pos:R:3 #=T CELL(abcABC):=T 1.889726e+02=T 90.00000=T Traj:=T positionsangstrom=T Step:=T 0=T Bead:=T pbc="F F F"
C      -42.67950000     -35.82640000     -71.88980000
C      -43.25830000     -34.77840000     -71.04610000
C      -44.60780000     -34.75790000     -70.75400000
C      -45.40750000     -35.82060000     -71.28530000
C      -44.85810000     -36.87180000     -72.04600000
C      -43.49080000     -36.87730000     -72.37020000
H      -41.65040000     -35.70630000     -72.17050000
H      -44.98990000     -33.98980000     -70.05070000
H      -45.44150000     -37.58040000     -72.60580000
H      -43.11450000     -37.63860000     -73.03720000
C      -46.90280000     -35.89290000     -70.97650000
H      -47.35500000     -35.13880000     -70.31510000
H      -47.20420000     -36.77500000     -70.45720000
C      -42.37660000     -33.60970000     -70.64990000
H      -42.96420000     -33.04440000     -69.91820000
H      -41.43760000     -33.98060000     -70.26090000
S      -47.87030000     -35.80650000     -72.58770000
S      -41.88650000     -32.43970000     -72.10790000
C      -47.07990000     -34.49220000     -73.50240000
H      -46.06890000     -34.71110000     -73.40870000
H      -47.43490000     -34.73370000     -74.46060000
C      -43.40560000     -32.44730000     -73.11230000
H      -44.01160000     -33.36170000     -72.97590000
H      -43.18170000     -32.43750000     -74.22410000
C      -44.27900000     -31.13400000     -72.85360000
H      -43.62670000     -30.25640000     -72.88830000
H      -44.99580000     -31.20100000     -73.61460000
C      -47.29250000     -33.00760000     -73.09530000
H      -48.28860000     -32.78340000     -73.42140000
H      -46.66390000     -32.45230000     -73.76780000
C      -47.15760000     -32.58470000     -71.66810000
C      -48.11570000     -32.90680000     -70.72100000
C      -46.05970000     -31.85220000     -71.10150000
H      -48.98120000     -33.53520000     -70.90880000
C      -46.27540000     -31.66890000     -69.68670000
C      -44.81200000     -31.19940000     -71.44540000
C      -44.15650000     -30.58090000     -70.40240000
S      -47.79740000     -32.26550000     -69.13670000
S      -45.06770000     -30.71240000     -68.91200000
H      -43.27830000     -29.98810000     -70.62390000
