40
Properties=species:S:1:pos:R:3 #=T CELL(abcABC):=T 1.889726e+02=T 90.00000=T Traj:=T positionsangstrom=T Step:=T 0=T Bead:=T pbc="F F F"
C      -42.40760000     -35.58330000     -71.90230000
C      -43.16330000     -34.74890000     -71.05430000
C      -44.47260000     -35.05400000     -70.78070000
C      -45.06770000     -36.10900000     -71.47160000
C      -44.31520000     -36.97810000     -72.26390000
C      -42.94120000     -36.69270000     -72.52120000
H      -41.45450000     -35.22250000     -72.20140000
H      -45.14280000     -34.43360000     -70.17280000
H      -44.85200000     -37.76960000     -72.80200000
H      -42.33460000     -37.28430000     -73.15990000
C      -46.50590000     -36.36640000     -71.22420000
H      -46.71510000     -35.96040000     -70.16220000
H      -46.65850000     -37.39070000     -71.07560000
C      -42.42070000     -33.57280000     -70.45020000
H      -43.09910000     -33.15760000     -69.62830000
H      -41.46300000     -33.85230000     -70.02350000
S      -47.76790000     -35.61420000     -72.44350000
S      -42.02070000     -32.30240000     -71.79840000
C      -46.73840000     -34.45100000     -73.35250000
H      -45.69540000     -34.54450000     -73.01480000
H      -46.81990000     -34.78700000     -74.41030000
C      -43.45020000     -32.40620000     -72.95540000
H      -43.97300000     -33.31090000     -72.75420000
H      -43.15250000     -32.54040000     -73.98130000
C      -44.31220000     -31.15030000     -72.82370000
H      -43.57090000     -30.25950000     -73.00340000
H      -45.10510000     -31.06760000     -73.72700000
C      -47.28680000     -32.98430000     -73.21790000
H      -48.31680000     -32.88140000     -73.73170000
H      -46.71940000     -32.33510000     -73.90410000
C      -47.29520000     -32.49240000     -71.80970000
C      -48.31210000     -32.88470000     -70.98820000
C      -46.32040000     -31.70160000     -71.11430000
H      -49.13390000     -33.56320000     -71.15720000
C      -46.61420000     -31.63800000     -69.76560000
C      -45.03640000     -31.08400000     -71.47190000
C      -44.41650000     -30.54120000     -70.37380000
S      -48.05280000     -32.38880000     -69.27140000
S      -45.30270000     -30.83080000     -68.88130000
H      -43.43650000     -30.19910000     -70.18720000
