40
Properties=species:S:1:pos:R:3 #=T CELL(abcABC):=T 1.889726e+02=T 90.00000=T Traj:=T positionsangstrom=T Step:=T 0=T Bead:=T pbc="F F F"
C      -42.76210000     -35.59190000     -72.05730000
C      -43.31360000     -34.71750000     -71.14920000
C      -44.68360000     -34.83050000     -70.79190000
C      -45.36020000     -36.00070000     -71.14890000
C      -44.75930000     -36.98550000     -71.96220000
C      -43.53960000     -36.70650000     -72.50340000
H      -41.78620000     -35.25580000     -72.49340000
H      -45.15680000     -33.96190000     -70.30160000
H      -45.32420000     -37.85310000     -72.25030000
H      -43.18170000     -37.38560000     -73.23220000
C      -46.82390000     -36.08570000     -70.92240000
H      -47.17440000     -35.25150000     -70.29120000
H      -47.19560000     -37.08340000     -70.63220000
C      -42.55390000     -33.53490000     -70.67790000
H      -43.13650000     -32.91930000     -69.94420000
H      -41.73490000     -33.81180000     -70.01760000
S      -47.78480000     -35.77810000     -72.49800000
S      -41.88340000     -32.35290000     -71.96810000
C      -46.75360000     -34.41740000     -73.31580000
H      -45.66030000     -34.43510000     -73.00730000
H      -46.66620000     -34.51950000     -74.44730000
C      -43.26830000     -32.26710000     -73.16710000
H      -43.77220000     -33.19860000     -73.25450000
H      -42.68480000     -32.12240000     -74.08220000
C      -44.30080000     -31.17550000     -72.93560000
H      -43.82220000     -30.11830000     -73.06220000
H      -45.19920000     -31.32940000     -73.57400000
C      -47.26000000     -32.98390000     -73.19270000
H      -48.35450000     -32.90480000     -73.57660000
H      -46.68590000     -32.33650000     -73.87990000
C      -47.24850000     -32.45240000     -71.73030000
C      -48.18900000     -32.97220000     -70.84570000
C      -46.15320000     -31.79900000     -71.07140000
H      -49.08560000     -33.57110000     -71.13100000
C      -46.36510000     -31.76270000     -69.66860000
C      -44.84430000     -31.20720000     -71.45800000
C      -44.19700000     -30.62130000     -70.39650000
S      -47.86780000     -32.40240000     -69.20980000
S      -45.05120000     -30.80250000     -68.90940000
H      -43.25570000     -30.04470000     -70.36400000
