40
Properties=species:S:1:pos:R:3 #=T CELL(abcABC):=T 1.889726e+02=T 90.00000=T Traj:=T positionsangstrom=T Step:=T 0=T Bead:=T pbc="F F F"
C      -44.13150000     -35.43120000     -74.22710000
C      -44.10210000     -33.98880000     -74.12320000
C      -45.25620000     -33.28950000     -74.23650000
C      -46.54680000     -33.93300000     -74.33070000
C      -46.56830000     -35.35040000     -74.34160000
C      -45.39500000     -36.01350000     -74.28160000
H      -43.25890000     -36.03780000     -74.32100000
H      -45.35140000     -32.23910000     -74.09560000
H      -47.51640000     -35.93050000     -74.44980000
H      -45.34310000     -37.10130000     -74.10240000
C      -47.80740000     -33.20410000     -74.47360000
H      -48.68820000     -33.80060000     -74.07240000
H      -47.94570000     -33.10700000     -75.53350000
C      -42.71450000     -33.27490000     -74.08180000
H      -42.08830000     -33.17350000     -75.05800000
H      -42.99170000     -32.18140000     -73.76230000
S      -48.01760000     -31.51010000     -73.68220000
S      -41.63050000     -33.98360000     -72.72670000
C      -48.02320000     -32.11130000     -71.94530000
H      -48.49760000     -31.37960000     -71.31310000
H      -48.70910000     -32.90530000     -71.84990000
C      -42.87120000     -34.03340000     -71.32370000
H      -42.35020000     -34.66330000     -70.67320000
H      -43.78990000     -34.57330000     -71.73390000
C      -43.21550000     -32.64230000     -70.72310000
H      -42.24920000     -32.13430000     -70.51330000
H      -43.73510000     -31.97170000     -71.46240000
C      -46.58850000     -32.47620000     -71.40230000
H      -45.90830000     -31.72210000     -71.64320000
H      -46.22990000     -33.27760000     -71.95720000
C      -46.57170000     -32.89810000     -69.96340000
C      -47.67910000     -33.09650000     -69.18480000
C      -45.32950000     -32.92550000     -69.19870000
H      -48.72230000     -33.11480000     -69.49670000
C      -45.64880000     -33.29040000     -67.87020000
C      -43.90990000     -32.77550000     -69.38760000
C      -43.19950000     -32.98100000     -68.23730000
S      -47.33760000     -33.52190000     -67.50630000
S      -44.23340000     -33.39800000     -66.90080000
H      -42.10150000     -33.06040000     -68.10260000
