40
Properties=species:S:1:pos:R:3 #=T CELL(abcABC):=T 1.889726e+02=T 90.00000=T Traj:=T positionsangstrom=T Step:=T 0=T Bead:=T pbc="F F F"
C      -42.14520000     -35.83820000     -72.10920000
C      -42.83330000     -35.04940000     -71.20930000
C      -44.11370000     -35.46520000     -70.84410000
C      -44.86860000     -36.34590000     -71.64390000
C      -44.09310000     -37.09170000     -72.59220000
C      -42.74560000     -36.85360000     -72.83660000
H      -41.13730000     -35.58850000     -72.30410000
H      -44.57910000     -34.99050000     -70.00520000
H      -44.67320000     -37.70800000     -73.29110000
H      -42.31730000     -37.46190000     -73.67530000
C      -46.38190000     -36.45950000     -71.49060000
H      -46.75520000     -35.68220000     -70.71540000
H      -46.76270000     -37.46860000     -71.43060000
C      -42.26030000     -33.79840000     -70.54420000
H      -42.92230000     -33.42070000     -69.70270000
H      -41.32230000     -33.98170000     -70.07110000
S      -47.18510000     -35.94490000     -73.10110000
S      -42.02830000     -32.33770000     -71.68590000
C      -46.44170000     -34.25700000     -73.42350000
H      -45.52000000     -34.31880000     -72.82300000
H      -46.18810000     -34.36610000     -74.48550000
C      -43.61290000     -32.27080000     -72.71920000
H      -44.30310000     -33.15190000     -72.57100000
H      -43.21870000     -32.27910000     -73.79190000
C      -44.43220000     -30.97410000     -72.46830000
H      -43.70820000     -30.23990000     -72.37070000
H      -45.03160000     -30.87650000     -73.37830000
C      -47.26630000     -33.02920000     -73.06130000
H      -48.29240000     -33.13380000     -73.53050000
H      -46.91380000     -32.12430000     -73.53830000
C      -47.38420000     -32.61140000     -71.58640000
C      -48.51620000     -32.77150000     -70.79710000
C      -46.42280000     -31.81310000     -70.81970000
H      -49.27880000     -33.47450000     -71.10420000
C      -46.82160000     -31.58530000     -69.50160000
C      -45.15150000     -31.06960000     -71.14220000
C      -44.75260000     -30.21680000     -70.06110000
S      -48.43190000     -32.13650000     -69.18340000
S      -45.83670000     -30.34010000     -68.69080000
H      -43.89590000     -29.63600000     -70.05790000
