40
Properties=species:S:1:pos:R:3 #=T CELL(abcABC):=T 1.889726e+02=T 90.00000=T Traj:=T positionsangstrom=T Step:=T 0=T Bead:=T pbc="F F F"
C      -42.13130000     -35.62050000     -72.18150000
C      -42.91120000     -34.90810000     -71.31230000
C      -44.25260000     -35.16100000     -71.17320000
C      -44.89460000     -36.31700000     -71.73280000
C      -44.05060000     -37.08680000     -72.49960000
C      -42.71040000     -36.75010000     -72.69660000
H      -41.10840000     -35.39900000     -72.25980000
H      -44.89590000     -34.46920000     -70.55690000
H      -44.41710000     -38.03860000     -72.83950000
H      -42.11160000     -37.45550000     -73.22450000
C      -46.30330000     -36.66090000     -71.66430000
H      -46.79280000     -36.35430000     -70.78190000
H      -46.43270000     -37.74810000     -71.65990000
C      -42.33580000     -33.77110000     -70.56880000
H      -42.95030000     -33.57560000     -69.69340000
H      -41.35220000     -34.10510000     -70.20730000
S      -47.21500000     -35.86840000     -73.16950000
S      -42.03080000     -32.25860000     -71.64210000
C      -46.39610000     -34.33240000     -73.44250000
H      -45.43820000     -34.35510000     -72.93690000
H      -46.17940000     -34.21150000     -74.54250000
C      -43.55880000     -32.21220000     -72.60220000
H      -44.05460000     -33.12610000     -72.36260000
H      -43.35540000     -32.34490000     -73.68120000
C      -44.43930000     -30.97090000     -72.39240000
H      -43.84220000     -30.05520000     -72.32360000
H      -45.19030000     -30.89730000     -73.17340000
C      -47.14110000     -33.04280000     -73.02360000
H      -48.11050000     -33.16450000     -73.46540000
H      -46.61100000     -32.24580000     -73.59250000
C      -47.18860000     -32.67660000     -71.55560000
C      -48.24810000     -33.12400000     -70.79170000
C      -46.48230000     -31.70340000     -70.83850000
H      -48.83030000     -33.89190000     -71.20620000
C      -46.95490000     -31.47400000     -69.54480000
C      -45.23890000     -30.98810000     -71.06000000
C      -44.77080000     -30.27320000     -69.93790000
S      -48.46860000     -32.35340000     -69.21040000
S      -45.89490000     -30.40020000     -68.59050000
H      -43.89550000     -29.69690000     -69.88980000
