40
Properties=species:S:1:pos:R:3 #=T CELL(abcABC):=T 1.889726e+02=T 90.00000=T Traj:=T positionsangstrom=T Step:=T 0=T Bead:=T pbc="F F F"
C      -45.73850000     -36.18450000     -68.36140000
C      -46.73020000     -35.64760000     -69.19750000
C      -47.10400000     -34.32880000     -69.03730000
C      -46.53620000     -33.49460000     -68.02860000
C      -45.56960000     -34.04410000     -67.15630000
C      -45.22650000     -35.36900000     -67.34010000
H      -45.49190000     -37.24980000     -68.47990000
H      -47.78860000     -33.89600000     -69.74380000
H      -45.12500000     -33.50880000     -66.33890000
H      -44.33570000     -35.64720000     -66.79880000
C      -47.05430000     -32.12080000     -67.81650000
H      -47.44690000     -31.93550000     -66.77100000
H      -47.91200000     -32.02910000     -68.45100000
C      -47.50270000     -36.49800000     -70.20660000
H      -47.99980000     -37.35820000     -69.80270000
H      -48.19290000     -35.80510000     -70.66660000
S      -45.80940000     -30.80110000     -68.15120000
S      -46.48390000     -37.13450000     -71.58210000
C      -45.48290000     -30.68300000     -69.97450000
H      -46.43110000     -30.49780000     -70.47500000
H      -44.94510000     -29.77110000     -70.11380000
C      -45.95960000     -35.62990000     -72.56340000
H      -46.65330000     -34.74930000     -72.43850000
H      -46.05260000     -35.86020000     -73.69980000
C      -44.47870000     -35.10590000     -72.19810000
H      -44.49860000     -34.82200000     -71.12160000
H      -43.69650000     -35.89450000     -72.25570000
C      -44.77650000     -31.81070000     -70.69140000
H      -45.33580000     -32.75180000     -70.66740000
H      -43.86920000     -32.03010000     -70.17820000
C      -44.49770000     -31.58000000     -72.14020000
C      -44.43020000     -30.29610000     -72.58920000
C      -44.32670000     -32.59170000     -73.19130000
H      -44.47970000     -29.38190000     -72.04250000
C      -44.06770000     -31.97430000     -74.43970000
C      -44.30930000     -34.03920000     -73.23340000
C      -44.05330000     -34.47020000     -74.51670000
S      -44.06740000     -30.25480000     -74.39010000
S      -43.72660000     -33.21930000     -75.65740000
H      -43.98630000     -35.46800000     -74.97010000
