40
Properties=species:S:1:pos:R:3 #=T CELL(abcABC):=T 1.889726e+02=T 90.00000=T Traj:=T positionsangstrom=T Step:=T 0=T Bead:=T pbc="F F F"
C      -42.51330000     -34.43490000     -69.98020000
C      -43.00860000     -33.37220000     -69.16100000
C      -44.13830000     -33.62600000     -68.36990000
C      -44.77150000     -34.84910000     -68.46070000
C      -44.19230000     -35.94520000     -69.15340000
C      -43.01050000     -35.72270000     -69.83040000
H      -41.61200000     -34.22640000     -70.61400000
H      -44.61760000     -33.00570000     -67.65560000
H      -44.65700000     -37.00170000     -69.21180000
H      -42.61230000     -36.51860000     -70.51420000
C      -46.02260000     -35.08470000     -67.61150000
H      -45.77710000     -34.78710000     -66.58520000
H      -46.40060000     -36.08030000     -67.70370000
C      -42.13740000     -32.07810000     -69.14850000
H      -42.11690000     -31.62690000     -68.09680000
H      -41.11340000     -32.37710000     -69.46420000
S      -47.38680000     -33.86520000     -67.89050000
S      -42.69950000     -30.74910000     -70.26530000
C      -47.51060000     -34.28870000     -69.73890000
H      -47.35620000     -35.35250000     -69.97280000
H      -48.47840000     -34.12500000     -70.03070000
C      -43.35440000     -31.57650000     -71.80660000
H      -43.34480000     -32.72330000     -71.64850000
H      -42.60350000     -31.38840000     -72.64820000
C      -44.79810000     -31.16500000     -72.18610000
H      -45.34650000     -31.44740000     -71.33610000
H      -44.84940000     -30.10920000     -72.36580000
C      -46.69300000     -33.38390000     -70.70320000
H      -45.61540000     -33.35380000     -70.61190000
H      -46.89000000     -32.29500000     -70.52640000
C      -46.94650000     -33.74820000     -72.09560000
C      -47.72210000     -34.77800000     -72.64470000
C      -46.30370000     -33.00500000     -73.19460000
H      -48.39950000     -35.38140000     -72.02760000
C      -46.61870000     -33.50930000     -74.47060000
C      -45.29180000     -31.99930000     -73.29130000
C      -45.00730000     -31.66030000     -74.58350000
S      -47.64770000     -34.88990000     -74.40450000
S      -45.84200000     -32.71110000     -75.79100000
H      -44.45510000     -30.78540000     -74.80490000
