40
Properties=species:S:1:pos:R:3 #=T CELL(abcABC):=T 1.889726e+02=T 90.00000=T Traj:=T positionsangstrom=T Step:=T 0=T Bead:=T pbc="F F F"
C      -46.02880000     -35.40310000     -68.13080000
C      -46.99330000     -35.40600000     -69.15770000
C      -47.61680000     -34.23000000     -69.55200000
C      -47.34970000     -33.05520000     -68.84370000
C      -46.44770000     -33.06570000     -67.72240000
C      -45.76010000     -34.20690000     -67.44240000
H      -45.52550000     -36.29730000     -67.86430000
H      -48.21330000     -34.05180000     -70.47250000
H      -46.31170000     -32.10170000     -67.19460000
H      -44.91670000     -34.26230000     -66.75230000
C      -48.18370000     -31.84640000     -69.13530000
H      -48.87010000     -31.62270000     -68.24660000
H      -48.86180000     -31.85630000     -70.02820000
C      -47.29530000     -36.66490000     -69.93690000
H      -47.89370000     -37.44120000     -69.32530000
H      -48.02010000     -36.35090000     -70.74560000
S      -47.17490000     -30.28510000     -69.31730000
S      -45.85910000     -37.46520000     -70.77410000
C      -46.34400000     -30.47260000     -70.93450000
H      -47.06220000     -30.25190000     -71.73310000
H      -45.62910000     -29.68000000     -71.13190000
C      -45.34370000     -36.08080000     -71.93140000
H      -46.24290000     -35.50670000     -72.32030000
H      -44.86490000     -36.51050000     -72.81800000
C      -44.28700000     -35.00830000     -71.38930000
H      -44.67280000     -34.49090000     -70.53430000
H      -43.58190000     -35.71260000     -70.91490000
C      -45.58910000     -31.76520000     -71.14840000
H      -46.22250000     -32.64060000     -71.11160000
H      -44.86640000     -31.75860000     -70.37520000
C      -44.87320000     -31.73230000     -72.46470000
C      -44.56240000     -30.51750000     -73.08270000
C      -44.17440000     -32.83450000     -73.02020000
H      -44.86600000     -29.50930000     -72.86370000
C      -43.32330000     -32.50160000     -74.07710000
C      -43.78300000     -34.19560000     -72.50920000
C      -42.77210000     -34.73570000     -73.28230000
S      -43.47550000     -30.79060000     -74.47510000
S      -42.35100000     -33.76470000     -74.72950000
H      -42.29280000     -35.68270000     -73.15140000
