40
Properties=species:S:1:pos:R:3 #=T CELL(abcABC):=T 1.889726e+02=T 90.00000=T Traj:=T positionsangstrom=T Step:=T 0=T Bead:=T pbc="F F F"
C      -45.94500000     -35.35330000     -68.13720000
C      -47.01780000     -35.44350000     -69.07110000
C      -47.74730000     -34.29660000     -69.38820000
C      -47.39530000     -33.06510000     -68.70130000
C      -46.36540000     -33.03210000     -67.75030000
C      -45.60220000     -34.15190000     -67.49820000
H      -45.30510000     -36.25090000     -67.89460000
H      -48.56160000     -34.16910000     -70.06480000
H      -46.08770000     -32.02810000     -67.34000000
H      -44.86380000     -34.05880000     -66.69660000
C      -48.13080000     -31.84030000     -69.06120000
H      -48.86460000     -31.67840000     -68.27560000
H      -48.65160000     -31.84190000     -70.01960000
C      -47.21600000     -36.79220000     -69.72430000
H      -47.28220000     -37.59940000     -68.98030000
H      -48.09540000     -36.82970000     -70.33840000
S      -47.15740000     -30.27720000     -69.18890000
S      -45.82910000     -37.41280000     -70.84580000
C      -46.31700000     -30.42960000     -70.79440000
H      -47.10090000     -30.20160000     -71.50840000
H      -45.50310000     -29.66320000     -70.64430000
C      -45.32150000     -36.09750000     -72.08810000
H      -46.24260000     -35.69270000     -72.45720000
H      -44.94060000     -36.65180000     -72.89900000
C      -44.44440000     -35.05790000     -71.56680000
H      -45.07290000     -34.38470000     -70.91530000
H      -43.49490000     -35.38140000     -71.03950000
C      -45.76630000     -31.79890000     -71.16540000
H      -46.72930000     -32.50130000     -71.47900000
H      -45.22280000     -32.23120000     -70.35200000
C      -44.84570000     -31.72540000     -72.40740000
C      -44.64090000     -30.58670000     -73.14790000
C      -43.97090000     -32.79560000     -72.91700000
H      -45.15360000     -29.64090000     -73.03160000
C      -43.10850000     -32.37750000     -73.94680000
C      -43.77870000     -34.19350000     -72.64760000
C      -42.88410000     -34.75810000     -73.52500000
S      -43.70160000     -30.86830000     -74.62100000
S      -42.23090000     -33.69170000     -74.72500000
H      -42.62320000     -35.81510000     -73.60460000
