40
Properties=species:S:1:pos:R:3 #=T CELL(abcABC):=T 1.889726e+02=T 90.00000=T Traj:=T positionsangstrom=T Step:=T 0=T Bead:=T pbc="F F F"
C      -45.90150000     -35.52960000     -68.42380000
C      -46.96000000     -35.41910000     -69.33100000
C      -47.66790000     -34.20360000     -69.40160000
C      -47.25210000     -33.12910000     -68.62960000
C      -46.27100000     -33.27400000     -67.58780000
C      -45.55810000     -34.50580000     -67.55600000
H      -45.42430000     -36.49060000     -68.34710000
H      -48.41350000     -34.10030000     -70.21440000
H      -45.93960000     -32.47510000     -67.00870000
H      -44.76890000     -34.59460000     -66.81480000
C      -47.98240000     -31.84390000     -68.70720000
H      -48.42400000     -31.56380000     -67.76510000
H      -48.75510000     -31.92450000     -69.43840000
C      -47.34680000     -36.63750000     -70.10140000
H      -47.76870000     -37.40940000     -69.39250000
H      -48.13770000     -36.47810000     -70.89150000
S      -46.94920000     -30.30390000     -69.04630000
S      -45.87780000     -37.41940000     -70.94090000
C      -46.53240000     -30.50690000     -70.81420000
H      -47.48420000     -30.42870000     -71.48880000
H      -45.99360000     -29.51090000     -71.00330000
C      -45.31270000     -36.07210000     -72.20580000
H      -46.13150000     -35.52550000     -72.71400000
H      -44.78330000     -36.70310000     -72.89480000
C      -44.46990000     -34.98840000     -71.46900000
H      -44.94880000     -34.42490000     -70.66440000
H      -43.64020000     -35.41730000     -70.92760000
C      -45.69150000     -31.72920000     -71.13220000
H      -46.38050000     -32.50600000     -71.36250000
H      -44.98080000     -31.99870000     -70.24300000
C      -44.81220000     -31.61330000     -72.37250000
C      -44.68940000     -30.55910000     -73.19640000
C      -44.12690000     -32.80330000     -72.94730000
H      -45.12870000     -29.63060000     -73.03070000
C      -43.51470000     -32.42360000     -74.18130000
C      -43.78120000     -34.12210000     -72.52620000
C      -42.85200000     -34.66320000     -73.32140000
S      -43.67860000     -30.79100000     -74.61730000
S      -42.33790000     -33.64430000     -74.64050000
H      -42.41160000     -35.63290000     -73.28560000
