40
Properties=species:S:1:pos:R:3 #=T CELL(abcABC):=T 1.889726e+02=T 90.00000=T Traj:=T positionsangstrom=T Step:=T 0=T Bead:=T pbc="F F F"
C      -46.86840000     -35.32620000     -67.81840000
C      -47.35680000     -35.33570000     -69.15280000
C      -47.83670000     -34.10910000     -69.67020000
C      -47.89410000     -32.96260000     -68.88660000
C      -47.45930000     -32.95890000     -67.58000000
C      -46.98450000     -34.20890000     -67.03080000
H      -46.44780000     -36.26290000     -67.45070000
H      -48.30640000     -33.99060000     -70.70440000
H      -47.57770000     -32.11760000     -66.90630000
H      -46.62010000     -34.25870000     -65.97700000
C      -48.17840000     -31.63750000     -69.59890000
H      -49.13890000     -31.27460000     -69.29560000
H      -48.31450000     -31.69620000     -70.68700000
C      -47.54740000     -36.54220000     -70.03090000
H      -47.96300000     -37.36700000     -69.45310000
H      -48.15010000     -36.29900000     -70.87500000
S      -46.92820000     -30.20270000     -69.43940000
S      -45.94700000     -37.23530000     -70.66520000
C      -45.98350000     -30.40970000     -70.97430000
H      -46.51870000     -30.05160000     -71.83350000
H      -45.14230000     -29.74480000     -70.79410000
C      -45.49490000     -35.92340000     -71.91740000
H      -46.32300000     -35.29640000     -72.19490000
H      -45.28520000     -36.43950000     -72.90560000
C      -44.30190000     -35.07990000     -71.34850000
H      -44.57450000     -34.36480000     -70.59490000
H      -43.58950000     -35.84410000     -71.01000000
C      -45.37440000     -31.80180000     -71.28900000
H      -46.11840000     -32.52910000     -71.38880000
H      -44.88330000     -32.14860000     -70.37830000
C      -44.47500000     -31.72110000     -72.48920000
C      -44.09610000     -30.58970000     -73.22190000
C      -43.76550000     -32.94100000     -72.91380000
H      -44.43140000     -29.57410000     -72.99710000
C      -42.96730000     -32.63540000     -74.04590000
C      -43.64000000     -34.31090000     -72.52190000
C      -42.86880000     -35.02370000     -73.36730000
S      -42.89960000     -30.91770000     -74.45510000
S      -42.10880000     -34.04050000     -74.66370000
H      -42.42280000     -36.02650000     -73.28980000
