40
Properties=species:S:1:pos:R:3 #=T CELL(abcABC):=T 1.889726e+02=T 90.00000=T Traj:=T positionsangstrom=T Step:=T 0=T Bead:=T pbc="F F F"
C      -46.41100000     -35.42820000     -68.14110000
C      -47.24470000     -35.37730000     -69.24960000
C      -47.84260000     -34.16300000     -69.65850000
C      -47.57280000     -33.00500000     -68.89070000
C      -46.76460000     -33.06180000     -67.76960000
C      -46.12620000     -34.30430000     -67.40890000
H      -45.81500000     -36.35520000     -67.98110000
H      -48.27880000     -34.12150000     -70.66420000
H      -46.51570000     -32.25090000     -67.15300000
H      -45.53440000     -34.31080000     -66.48980000
C      -48.27750000     -31.79690000     -69.29150000
H      -49.03030000     -31.37440000     -68.67990000
H      -48.83270000     -31.89100000     -70.24280000
C      -47.54010000     -36.61800000     -70.02680000
H      -47.96230000     -37.42080000     -69.34150000
H      -48.30940000     -36.44720000     -70.84890000
S      -47.11570000     -30.35590000     -69.32810000
S      -46.04300000     -37.38400000     -70.86280000
C      -46.14740000     -30.41250000     -70.93190000
H      -46.92340000     -30.44590000     -71.72520000
H      -45.55940000     -29.48210000     -70.86910000
C      -45.50630000     -35.98230000     -71.96370000
H      -46.35630000     -35.42710000     -72.33590000
H      -44.97050000     -36.34970000     -72.87450000
C      -44.49910000     -34.99940000     -71.27880000
H      -45.06180000     -34.31040000     -70.64470000
H      -43.86880000     -35.63090000     -70.67700000
C      -45.24240000     -31.63800000     -71.07120000
H      -45.87900000     -32.51900000     -71.01290000
H      -44.64990000     -31.75320000     -70.12940000
C      -44.40350000     -31.55980000     -72.29630000
C      -44.25690000     -30.47220000     -73.16870000
C      -43.72580000     -32.76420000     -72.76320000
H      -44.85560000     -29.57150000     -73.23010000
C      -43.13180000     -32.57150000     -73.99560000
C      -43.72080000     -34.21700000     -72.38980000
C      -42.87880000     -34.83940000     -73.30350000
S      -43.18220000     -30.85360000     -74.52580000
S      -42.23840000     -33.90840000     -74.62000000
H      -42.73510000     -35.91750000     -73.30910000
