40
Properties=species:S:1:pos:R:3 #=T CELL(abcABC):=T 1.889726e+02=T 90.00000=T Traj:=T positionsangstrom=T Step:=T 0=T Bead:=T pbc="F F F"
C      -47.20350000     -35.29180000     -67.81960000
C      -47.51100000     -35.28360000     -69.20220000
C      -47.79530000     -34.00620000     -69.80850000
C      -47.91610000     -32.86770000     -68.92600000
C      -47.49600000     -32.91950000     -67.60580000
C      -47.15560000     -34.14410000     -67.03550000
H      -47.04090000     -36.26500000     -67.28220000
H      -47.92610000     -33.93780000     -70.91430000
H      -47.19430000     -31.95150000     -67.20430000
H      -46.83990000     -34.09170000     -65.97740000
C      -48.31200000     -31.48780000     -69.47710000
H      -49.15480000     -31.09510000     -68.85040000
H      -48.54070000     -31.56560000     -70.52350000
C      -47.56660000     -36.54650000     -70.00260000
H      -47.91810000     -37.36890000     -69.34630000
H      -48.25750000     -36.48770000     -70.86060000
S      -46.88550000     -30.27770000     -69.37430000
S      -45.95300000     -37.11610000     -70.55660000
C      -45.97270000     -30.39920000     -70.98690000
H      -46.61020000     -30.06570000     -71.79640000
H      -45.21870000     -29.56170000     -70.92450000
C      -45.34110000     -35.95380000     -71.82220000
H      -46.20800000     -35.37870000     -72.15620000
H      -44.89660000     -36.56990000     -72.62210000
C      -44.18480000     -34.96340000     -71.33050000
H      -44.56700000     -34.26950000     -70.57140000
H      -43.38840000     -35.49140000     -70.75890000
C      -45.37300000     -31.73890000     -71.26420000
H      -46.23840000     -32.40950000     -71.59030000
H      -44.87660000     -32.18190000     -70.38400000
C      -44.36500000     -31.81060000     -72.40330000
C      -43.88350000     -30.67630000     -73.01470000
C      -43.66030000     -32.97850000     -72.92780000
H      -44.26650000     -29.72000000     -72.86440000
C      -42.98360000     -32.70920000     -74.09580000
C      -43.51310000     -34.38880000     -72.54840000
C      -42.78290000     -35.08920000     -73.45370000
S      -42.86010000     -31.06310000     -74.52650000
S      -42.21670000     -34.06000000     -74.83640000
H      -42.57260000     -36.16310000     -73.46070000
