40
Properties=species:S:1:pos:R:3 #=T CELL(abcABC):=T 1.889726e+02=T 90.00000=T Traj:=T positionsangstrom=T Step:=T 0=T Bead:=T pbc="F F F"
C      -46.65790000     -35.44860000     -68.00100000
C      -47.43080000     -35.39600000     -69.18490000
C      -47.99580000     -34.22410000     -69.63650000
C      -47.68710000     -32.98800000     -68.96840000
C      -46.90520000     -33.06770000     -67.79870000
C      -46.50200000     -34.25960000     -67.27300000
H      -46.23380000     -36.41850000     -67.70610000
H      -48.75960000     -34.22240000     -70.34050000
H      -46.52680000     -32.14640000     -67.32300000
H      -45.95400000     -34.26190000     -66.31700000
C      -48.13320000     -31.65810000     -69.52580000
H      -49.13310000     -31.40820000     -69.02150000
H      -48.24610000     -31.88040000     -70.56740000
C      -47.53440000     -36.68980000     -70.00880000
H      -47.72520000     -37.51020000     -69.40440000
H      -48.32290000     -36.60440000     -70.70300000
S      -47.04500000     -30.25140000     -69.30960000
S      -46.04060000     -37.33530000     -70.88270000
C      -46.17620000     -30.35860000     -70.86790000
H      -46.75770000     -30.10780000     -71.71480000
H      -45.49380000     -29.49680000     -70.86300000
C      -45.34410000     -36.03340000     -71.94260000
H      -46.21480000     -35.61540000     -72.49870000
H      -44.86410000     -36.68450000     -72.67530000
C      -44.37310000     -35.06550000     -71.38370000
H      -44.75520000     -34.38260000     -70.62020000
H      -43.66510000     -35.65310000     -70.76410000
C      -45.29130000     -31.61910000     -71.04820000
H      -45.96630000     -32.51330000     -71.04480000
H      -44.57500000     -31.59750000     -70.29340000
C      -44.46930000     -31.68490000     -72.38310000
C      -44.19250000     -30.51130000     -73.05790000
C      -43.86940000     -32.91470000     -72.92860000
H      -44.69870000     -29.56480000     -72.78960000
C      -43.16700000     -32.59520000     -74.07980000
C      -43.64320000     -34.27350000     -72.47600000
C      -42.79850000     -34.90960000     -73.33510000
S      -43.09860000     -30.87070000     -74.41410000
S      -42.08520000     -33.84770000     -74.62830000
H      -42.62840000     -35.97040000     -73.22320000
