40
Properties=species:S:1:pos:R:3 #=T CELL(abcABC):=T 1.889726e+02=T 90.00000=T Traj:=T positionsangstrom=T Step:=T 0=T Bead:=T pbc="F F F"
C      -47.31730000     -35.36460000     -67.90850000
C      -47.58620000     -35.20470000     -69.25020000
C      -48.01050000     -33.96670000     -69.71560000
C      -47.97270000     -32.78040000     -68.89110000
C      -47.57500000     -32.93310000     -67.53620000
C      -47.27010000     -34.20420000     -67.10860000
H      -46.93380000     -36.32120000     -67.54430000
H      -48.28880000     -33.87810000     -70.71300000
H      -47.70990000     -32.12120000     -66.77970000
H      -47.00110000     -34.38440000     -66.06160000
C      -48.18770000     -31.47180000     -69.54770000
H      -49.02860000     -30.91710000     -69.13050000
H      -48.48250000     -31.69730000     -70.55620000
C      -47.59630000     -36.42340000     -70.13060000
H      -48.35730000     -37.08760000     -69.70220000
H      -48.02050000     -36.29730000     -71.17040000
S      -46.75830000     -30.27940000     -69.42780000
S      -45.90630000     -37.01600000     -70.31410000
C      -45.79790000     -30.46590000     -71.00450000
H      -46.41350000     -30.21930000     -71.88190000
H      -45.02330000     -29.73740000     -70.88430000
C      -45.40860000     -35.99900000     -71.80970000
H      -46.27050000     -35.26870000     -72.01490000
H      -45.20310000     -36.55710000     -72.67420000
C      -44.26050000     -35.09620000     -71.40770000
H      -44.50460000     -34.40760000     -70.56580000
H      -43.45660000     -35.65380000     -70.91210000
C      -45.08150000     -31.75430000     -71.12680000
H      -45.78720000     -32.53720000     -70.85110000
H      -44.35310000     -31.73890000     -70.33670000
C      -44.36300000     -31.88760000     -72.47720000
C      -44.02700000     -30.76660000     -73.22130000
C      -43.57840000     -32.95390000     -72.93730000
H      -44.38250000     -29.75880000     -73.24900000
C      -42.81360000     -32.69130000     -74.06480000
C      -43.64280000     -34.41630000     -72.66260000
C      -42.91890000     -35.12310000     -73.55740000
S      -42.92440000     -30.99080000     -74.54420000
S      -42.16680000     -34.13240000     -74.74750000
H      -42.90090000     -36.16110000     -73.78900000
