40
Properties=species:S:1:pos:R:3 #=T CELL(abcABC):=T 1.889726e+02=T 90.00000=T Traj:=T positionsangstrom=T Step:=T 0=T Bead:=T pbc="F F F"
C      -47.83300000     -35.21140000     -67.98870000
C      -47.71080000     -35.05770000     -69.37210000
C      -47.75170000     -33.82200000     -69.95160000
C      -47.76100000     -32.64410000     -69.11530000
C      -47.79190000     -32.82840000     -67.75810000
C      -47.88050000     -34.08840000     -67.18570000
H      -48.01880000     -36.15470000     -67.56110000
H      -47.71930000     -33.77960000     -71.02590000
H      -47.74430000     -31.91470000     -67.14150000
H      -48.06270000     -34.18430000     -66.09910000
C      -47.87470000     -31.22000000     -69.75480000
H      -48.73380000     -30.76120000     -69.31250000
H      -48.03910000     -31.14010000     -70.81780000
C      -47.63460000     -36.27660000     -70.23790000
H      -48.22240000     -37.10020000     -69.86530000
H      -47.83360000     -36.09000000     -71.27210000
S      -46.38310000     -30.29530000     -69.21190000
S      -45.96370000     -37.10840000     -70.25600000
C      -45.46620000     -30.11350000     -70.82340000
H      -46.20460000     -29.81590000     -71.57030000
H      -44.72340000     -29.35630000     -70.69210000
C      -45.08180000     -36.39250000     -71.69550000
H      -45.76590000     -36.23400000     -72.49020000
H      -44.35050000     -37.18050000     -72.01620000
C      -44.35150000     -35.07420000     -71.27860000
H      -45.23930000     -34.45030000     -71.10110000
H      -43.68570000     -35.22500000     -70.45750000
C      -44.89750000     -31.56390000     -71.14850000
H      -45.61850000     -32.29120000     -70.80670000
H      -44.09130000     -31.80890000     -70.45780000
C      -44.27190000     -31.75810000     -72.43270000
C      -43.97880000     -30.65190000     -73.25610000
C      -43.76800000     -33.07740000     -72.94300000
H      -44.23570000     -29.64660000     -72.93990000
C      -42.99950000     -32.84290000     -74.06270000
C      -43.71550000     -34.40940000     -72.50060000
C      -43.01540000     -35.23810000     -73.34230000
S      -42.97540000     -31.16720000     -74.61830000
S      -42.33050000     -34.35330000     -74.76340000
H      -42.62470000     -36.21350000     -73.20920000
