40
Properties=species:S:1:pos:R:3 #=T CELL(abcABC):=T 1.889726e+02=T 90.00000=T Traj:=T positionsangstrom=T Step:=T 0=T Bead:=T pbc="F F F"
C      -41.42140000     -34.44080000     -70.53500000
C      -42.50790000     -33.55520000     -70.29850000
C      -43.81590000     -34.02000000     -70.34060000
C      -44.04470000     -35.42200000     -70.37910000
C      -42.91680000     -36.25180000     -70.33320000
C      -41.60650000     -35.81920000     -70.41890000
H      -40.42150000     -33.99540000     -70.60410000
H      -44.63390000     -33.32120000     -70.30070000
H      -43.09110000     -37.30240000     -70.31020000
H      -40.76150000     -36.52350000     -70.42810000
C      -45.35590000     -35.99820000     -70.53980000
H      -46.13800000     -35.35390000     -70.16540000
H      -45.36900000     -36.87660000     -69.98240000
C      -42.40090000     -32.08670000     -70.12290000
H      -43.07630000     -31.66630000     -69.41360000
H      -41.40380000     -31.88350000     -69.80440000
S      -45.80460000     -36.51390000     -72.27270000
S      -42.62010000     -31.08930000     -71.67330000
C      -45.55760000     -34.94110000     -73.22330000
H      -44.91940000     -34.22640000     -72.59120000
H      -44.92110000     -35.22180000     -74.07290000
C      -43.62010000     -31.92410000     -72.97880000
H      -43.69850000     -32.96250000     -72.64430000
H      -42.97210000     -31.69320000     -73.90170000
C      -45.03920000     -31.35490000     -73.25630000
H      -45.01630000     -30.30900000     -73.57340000
H      -45.47540000     -31.98820000     -74.15280000
C      -46.79320000     -34.29640000     -73.65120000
H      -47.52840000     -34.96160000     -74.11660000
H      -46.62560000     -33.53310000     -74.41560000
C      -47.45790000     -33.72850000     -72.41930000
C      -48.48640000     -34.32550000     -71.74450000
C      -47.01830000     -32.49180000     -71.76990000
H      -49.05070000     -35.21740000     -72.08110000
C      -47.76260000     -32.22680000     -70.62170000
C      -46.02040000     -31.49830000     -72.04970000
C      -45.99930000     -30.54360000     -71.00150000
S      -48.98790000     -33.40290000     -70.32050000
S      -47.17690000     -30.81530000     -69.75240000
H      -45.30620000     -29.76620000     -70.82830000
