40
Properties=species:S:1:pos:R:3 #=T CELL(abcABC):=T 1.889726e+02=T 90.00000=T Traj:=T positionsangstrom=T Step:=T 0=T Bead:=T pbc="F F F"
C      -41.90180000     -33.81760000     -69.81420000
C      -43.09130000     -33.20000000     -70.12200000
C      -44.27350000     -33.98760000     -70.07370000
C      -44.22760000     -35.39730000     -69.81120000
C      -42.99050000     -35.97280000     -69.50940000
C      -41.78770000     -35.21050000     -69.49230000
H      -40.92020000     -33.26230000     -69.78890000
H      -45.26980000     -33.39470000     -70.26090000
H      -42.95100000     -37.05370000     -69.44520000
H      -40.77980000     -35.73650000     -69.56240000
C      -45.51060000     -36.23600000     -69.83740000
H      -46.33790000     -35.56310000     -69.61620000
H      -45.46020000     -36.86550000     -69.00060000
C      -43.27260000     -31.67500000     -70.37030000
H      -44.27300000     -31.39430000     -70.16560000
H      -42.48890000     -31.09830000     -69.86640000
S      -45.75630000     -36.99230000     -71.45770000
S      -42.79620000     -31.16930000     -72.10950000
C      -45.32240000     -35.73910000     -72.68240000
H      -44.55780000     -35.04280000     -72.28450000
H      -44.87650000     -36.18600000     -73.55400000
C      -43.58890000     -32.38930000     -73.17190000
H      -43.71390000     -33.28710000     -72.60560000
H      -42.90920000     -32.50590000     -74.00790000
C      -44.86590000     -31.94100000     -73.85420000
H      -44.71490000     -30.98900000     -74.41100000
H      -45.17680000     -32.74650000     -74.59970000
C      -46.53830000     -35.00350000     -73.22790000
H      -47.30600000     -35.74800000     -73.32820000
H      -46.41060000     -34.57310000     -74.20150000
C      -47.17470000     -34.01560000     -72.24760000
C      -48.17280000     -34.30060000     -71.37650000
C      -46.78050000     -32.59900000     -72.07900000
H      -48.54690000     -35.28770000     -71.09300000
C      -47.36880000     -31.97740000     -71.00250000
C      -45.91380000     -31.71160000     -72.76290000
C      -45.86000000     -30.47100000     -72.22660000
S      -48.63800000     -33.00950000     -70.35730000
S      -47.04750000     -30.26540000     -70.94470000
H      -45.16110000     -29.73590000     -72.63930000
