40
Properties=species:S:1:pos:R:3 #=T CELL(abcABC):=T 1.889726e+02=T 90.00000=T Traj:=T positionsangstrom=T Step:=T 0=T Bead:=T pbc="F F F"
C      -41.71720000     -34.05780000     -70.48460000
C      -42.87190000     -33.32530000     -70.21000000
C      -44.07900000     -34.01050000     -70.04810000
C      -44.11550000     -35.43060000     -70.01880000
C      -42.91080000     -36.13020000     -70.24690000
C      -41.72210000     -35.47320000     -70.48660000
H      -40.78050000     -33.44410000     -70.58980000
H      -45.05060000     -33.51640000     -69.88730000
H      -42.84680000     -37.24130000     -70.36150000
H      -40.74510000     -36.01550000     -70.50430000
C      -45.42800000     -36.09460000     -69.96490000
H      -46.13590000     -35.34680000     -69.63740000
H      -45.45930000     -36.91230000     -69.38760000
C      -42.80450000     -31.77940000     -70.24270000
H      -43.71230000     -31.47630000     -69.94990000
H      -41.99420000     -31.43040000     -69.65910000
S      -45.96880000     -36.74360000     -71.59220000
S      -42.52740000     -31.10360000     -71.90130000
C      -45.44660000     -35.47380000     -72.83490000
H      -44.77240000     -34.70930000     -72.41060000
H      -44.88690000     -36.03140000     -73.62740000
C      -43.55080000     -32.12240000     -73.21080000
H      -43.45180000     -33.09790000     -72.73080000
H      -42.96220000     -32.05820000     -74.13760000
C      -44.92260000     -31.60070000     -73.51550000
H      -44.81560000     -30.56470000     -73.94820000
H      -45.13560000     -32.16980000     -74.44410000
C      -46.64320000     -34.67060000     -73.48500000
H      -47.31700000     -35.36690000     -73.93110000
H      -46.23450000     -34.07110000     -74.30340000
C      -47.30680000     -33.84230000     -72.39050000
C      -48.34100000     -34.35820000     -71.69470000
C      -46.91160000     -32.54600000     -71.95810000
H      -48.74280000     -35.39360000     -71.85630000
C      -47.63850000     -32.12770000     -70.90140000
C      -45.94050000     -31.53200000     -72.41260000
C      -45.92970000     -30.47690000     -71.54710000
S      -48.88450000     -33.26300000     -70.36920000
S      -47.04330000     -30.60960000     -70.18410000
H      -45.19910000     -29.67060000     -71.49960000
