40
Properties=species:S:1:pos:R:3 #=T CELL(abcABC):=T 1.889726e+02=T 90.00000=T Traj:=T positionsangstrom=T Step:=T 0=T Bead:=T pbc="F F F"
C      -41.77130000     -33.96770000     -70.51850000
C      -42.94290000     -33.27380000     -70.31360000
C      -44.12000000     -33.97440000     -70.05360000
C      -44.16330000     -35.35970000     -70.15030000
C      -42.96220000     -36.04290000     -70.36270000
C      -41.79210000     -35.39550000     -70.57470000
H      -40.86180000     -33.47270000     -70.83950000
H      -45.04500000     -33.28730000     -69.89880000
H      -42.91350000     -37.10520000     -70.39850000
H      -40.94070000     -36.06280000     -70.82600000
C      -45.46380000     -36.05880000     -70.02630000
H      -46.23210000     -35.39720000     -69.51710000
H      -45.27020000     -37.00670000     -69.43860000
C      -43.03650000     -31.74670000     -70.30070000
H      -44.03960000     -31.32110000     -69.90860000
H      -42.21760000     -31.28290000     -69.62790000
S      -46.07710000     -36.67540000     -71.68810000
S      -42.45160000     -31.07420000     -72.03200000
C      -45.48630000     -35.35580000     -72.85010000
H      -44.83580000     -34.62090000     -72.30350000
H      -44.88200000     -35.85210000     -73.57700000
C      -43.48170000     -32.08040000     -73.17780000
H      -43.48650000     -33.07990000     -72.76400000
H      -42.92520000     -32.32230000     -74.13820000
C      -44.88690000     -31.67100000     -73.40140000
H      -44.85670000     -30.65900000     -73.84870000
H      -45.50080000     -32.29550000     -74.10730000
C      -46.67430000     -34.66050000     -73.54820000
H      -47.50110000     -35.26550000     -74.01030000
H      -46.25850000     -34.11000000     -74.43300000
C      -47.32960000     -33.81250000     -72.47170000
C      -48.39340000     -34.28350000     -71.74730000
C      -46.85640000     -32.63370000     -71.83280000
H      -49.04860000     -35.08840000     -72.18800000
C      -47.52650000     -32.23910000     -70.66530000
C      -45.81960000     -31.62760000     -72.21090000
C      -45.76840000     -30.61920000     -71.31950000
S      -48.77720000     -33.38950000     -70.31810000
S      -46.99160000     -30.69170000     -70.04850000
H      -45.13220000     -29.72710000     -71.29820000
