40
Properties=species:S:1:pos:R:3 #=T CELL(abcABC):=T 1.889726e+02=T 90.00000=T Traj:=T positionsangstrom=T Step:=T 0=T Bead:=T pbc="F F F"
C      -44.21690000     -35.55960000     -74.09630000
C      -44.17150000     -34.17790000     -74.33060000
C      -45.40080000     -33.52390000     -74.53770000
C      -46.60740000     -34.20690000     -74.54000000
C      -46.62970000     -35.55470000     -74.17150000
C      -45.45340000     -36.26870000     -74.13880000
H      -43.30180000     -36.17950000     -73.97820000
H      -45.35260000     -32.45390000     -74.79660000
H      -47.53610000     -36.14190000     -74.20630000
H      -45.45050000     -37.34400000     -73.99550000
C      -47.95970000     -33.48930000     -74.78070000
H      -48.73170000     -34.17670000     -74.55900000
H      -48.12970000     -33.11780000     -75.84030000
C      -42.90730000     -33.35950000     -74.13960000
H      -42.32690000     -33.54180000     -75.01670000
H      -43.08130000     -32.30070000     -74.14890000
S      -48.14540000     -31.98550000     -73.69050000
S      -41.68380000     -33.77910000     -72.83220000
C      -48.07520000     -32.58330000     -71.93610000
H      -48.68660000     -31.84730000     -71.32070000
H      -48.53900000     -33.58550000     -71.86650000
C      -42.70780000     -33.81840000     -71.28680000
H      -42.07070000     -34.37210000     -70.58350000
H      -43.58870000     -34.42180000     -71.56300000
C      -43.03960000     -32.46350000     -70.71410000
H      -42.25980000     -31.73930000     -70.50640000
H      -43.57430000     -32.03170000     -71.60820000
C      -46.60690000     -32.75290000     -71.38940000
H      -46.05740000     -31.91240000     -71.59470000
H      -46.13470000     -33.54660000     -71.96880000
C      -46.57430000     -32.92660000     -69.90620000
C      -47.64800000     -33.08230000     -69.06610000
C      -45.28670000     -32.82840000     -69.15090000
H      -48.62040000     -33.16790000     -69.45570000
C      -45.50240000     -33.02620000     -67.76600000
C      -43.86350000     -32.68580000     -69.42720000
C      -43.11050000     -32.75500000     -68.23310000
S      -47.20970000     -33.07170000     -67.37990000
S      -44.10350000     -33.00440000     -66.77720000
H      -42.05480000     -32.66190000     -68.14560000
