40
Properties=species:S:1:pos:R:3 #=T CELL(abcABC):=T 1.889726e+02=T 90.00000=T Traj:=T positionsangstrom=T Step:=T 0=T Bead:=T pbc="F F F"
C      -41.88300000     -33.58890000     -69.81670000
C      -43.23240000     -33.08870000     -70.15830000
C      -44.32130000     -33.90510000     -70.03840000
C      -44.22460000     -35.26720000     -69.75970000
C      -42.90220000     -35.76010000     -69.51090000
C      -41.73160000     -34.95170000     -69.63580000
H      -41.05600000     -32.94360000     -69.91880000
H      -45.35290000     -33.41250000     -70.27970000
H      -42.74070000     -36.81860000     -69.29010000
H      -40.81740000     -35.45690000     -69.39610000
C      -45.46380000     -36.04950000     -69.66250000
H      -46.31740000     -35.50860000     -69.31690000
H      -45.39880000     -36.90200000     -68.96110000
C      -43.38210000     -31.61030000     -70.32600000
H      -44.43630000     -31.23870000     -70.25920000
H      -42.81610000     -31.06060000     -69.65110000
S      -45.73730000     -37.07030000     -71.20420000
S      -42.74500000     -31.25440000     -72.10000000
C      -45.37650000     -36.02820000     -72.72330000
H      -44.49340000     -35.47250000     -72.57120000
H      -45.24110000     -36.72380000     -73.57010000
C      -43.45270000     -32.37610000     -73.44320000
H      -43.33940000     -33.44270000     -73.20320000
H      -42.72870000     -32.25810000     -74.21060000
C      -44.84450000     -31.89740000     -73.89290000
H      -44.71840000     -30.90450000     -74.32810000
H      -45.18140000     -32.58580000     -74.72320000
C      -46.46610000     -35.08080000     -73.21410000
H      -47.30900000     -35.64600000     -73.69780000
H      -46.13510000     -34.47590000     -74.06860000
C      -47.00870000     -34.04640000     -72.19760000
C      -48.03430000     -34.41710000     -71.35970000
C      -46.77160000     -32.64910000     -72.18650000
H      -48.49200000     -35.42340000     -71.33880000
C      -47.50550000     -32.05430000     -71.16440000
C      -45.88380000     -31.65910000     -72.84640000
C      -46.12730000     -30.36260000     -72.38520000
S      -48.50120000     -33.10040000     -70.27030000
S      -47.25640000     -30.35350000     -71.01520000
H      -45.57120000     -29.46450000     -72.68160000
