40
Properties=species:S:1:pos:R:3 #=T CELL(abcABC):=T 1.889726e+02=T 90.00000=T Traj:=T positionsangstrom=T Step:=T 0=T Bead:=T pbc="F F F"
C      -41.62710000     -33.77530000     -69.89870000
C      -42.80290000     -33.07550000     -70.13940000
C      -44.03950000     -33.82380000     -69.92920000
C      -44.05830000     -35.22430000     -69.69960000
C      -42.82850000     -35.84710000     -69.52980000
C      -41.62530000     -35.15050000     -69.51860000
H      -40.67620000     -33.23270000     -69.90130000
H      -45.01270000     -33.34370000     -70.15860000
H      -42.83130000     -36.89220000     -69.49100000
H      -40.70920000     -35.64250000     -69.41660000
C      -45.37010000     -35.94740000     -69.66500000
H      -46.18240000     -35.27020000     -69.49300000
H      -45.46120000     -36.67750000     -68.89290000
C      -42.92690000     -31.59710000     -70.51010000
H      -43.96580000     -31.29800000     -70.24080000
H      -42.20310000     -31.08550000     -69.83790000
S      -45.77850000     -37.03640000     -71.16070000
S      -42.45060000     -31.10950000     -72.30770000
C      -45.31970000     -35.98600000     -72.55910000
H      -44.45930000     -35.37430000     -72.31160000
H      -45.06210000     -36.53800000     -73.46880000
C      -43.47060000     -32.34300000     -73.23760000
H      -43.49120000     -33.30290000     -72.54810000
H      -42.78110000     -32.52760000     -74.08520000
C      -44.88730000     -31.95140000     -73.71950000
H      -44.72280000     -31.09560000     -74.32630000
H      -45.15960000     -32.82780000     -74.33740000
C      -46.53430000     -35.12480000     -73.03340000
H      -47.26870000     -35.91140000     -73.30300000
H      -46.18340000     -34.70440000     -74.03570000
C      -47.14320000     -34.14550000     -72.11700000
C      -48.16330000     -34.44840000     -71.27080000
C      -46.79060000     -32.69810000     -72.07540000
H      -48.64570000     -35.45570000     -71.24490000
C      -47.70040000     -32.06760000     -71.20560000
C      -46.01810000     -31.70220000     -72.71730000
C      -46.40310000     -30.39880000     -72.46510000
S      -48.79180000     -33.09360000     -70.37960000
S      -47.60200000     -30.31510000     -71.17420000
H      -45.90800000     -29.56130000     -72.88840000
