40
Properties=species:S:1:pos:R:3 #=T CELL(abcABC):=T 1.889726e+02=T 90.00000=T Traj:=T positionsangstrom=T Step:=T 0=T Bead:=T pbc="F F F"
C      -41.50920000     -33.39340000     -70.34280000
C      -42.80660000     -32.74450000     -70.39390000
C      -43.95860000     -33.51290000     -70.20600000
C      -43.85490000     -34.85500000     -69.75180000
C      -42.62780000     -35.47020000     -69.64410000
C      -41.41300000     -34.73290000     -69.95320000
H      -40.60890000     -32.78960000     -70.36830000
H      -44.98230000     -33.10650000     -70.28510000
H      -42.50580000     -36.55260000     -69.38790000
H      -40.43930000     -35.18040000     -69.74740000
C      -45.09170000     -35.57770000     -69.39080000
H      -45.97230000     -34.88960000     -69.25170000
H      -45.07320000     -36.04700000     -68.43200000
C      -42.85810000     -31.37620000     -70.83930000
H      -43.77010000     -30.93660000     -70.47110000
H      -41.99520000     -30.75590000     -70.49910000
S      -45.62320000     -36.96270000     -70.50440000
S      -42.73390000     -31.24520000     -72.73530000
C      -45.38810000     -36.01340000     -72.13710000
H      -44.52900000     -35.27810000     -71.98030000
H      -45.02090000     -36.65330000     -72.92690000
C      -43.65480000     -32.73170000     -73.37670000
H      -43.63500000     -33.40660000     -72.49540000
H      -43.14230000     -33.01740000     -74.30390000
C      -45.05770000     -32.37540000     -73.78370000
H      -45.08830000     -31.56390000     -74.49660000
H      -45.42570000     -33.21460000     -74.41820000
C      -46.57200000     -35.38310000     -72.76090000
H      -47.25400000     -36.18150000     -72.93050000
H      -46.35340000     -34.94350000     -73.77220000
C      -47.21390000     -34.31810000     -71.91720000
C      -48.25230000     -34.57460000     -71.07340000
C      -46.87130000     -32.86130000     -71.86210000
H      -48.66750000     -35.59260000     -71.01530000
C      -47.79480000     -32.11120000     -71.08930000
C      -45.98130000     -32.04260000     -72.62210000
C      -46.15670000     -30.68870000     -72.31980000
S      -49.08940000     -33.15430000     -70.51860000
S      -47.43260000     -30.42340000     -71.21190000
H      -45.81220000     -29.76370000     -72.79380000
