40
Properties=species:S:1:pos:R:3 #=T CELL(abcABC):=T 1.889726e+02=T 90.00000=T Traj:=T positionsangstrom=T Step:=T 0=T Bead:=T pbc="F F F"
C      -41.63520000     -33.06370000     -70.53920000
C      -42.91320000     -32.53890000     -70.49780000
C      -44.04100000     -33.39340000     -70.10230000
C      -43.80140000     -34.68550000     -69.69200000
C      -42.44730000     -35.20100000     -69.62120000
C      -41.42130000     -34.40260000     -69.99770000
H      -40.89000000     -32.42290000     -71.00850000
H      -45.10640000     -33.04720000     -70.08180000
H      -42.26250000     -36.10120000     -69.08740000
H      -40.37650000     -34.71260000     -69.77480000
C      -44.94830000     -35.57250000     -69.24600000
H      -45.81700000     -34.92740000     -69.27240000
H      -44.85720000     -36.07820000     -68.27100000
C      -43.14380000     -31.15610000     -71.07870000
H      -44.06680000     -30.64720000     -70.76880000
H      -42.32160000     -30.53570000     -70.73070000
S      -45.33460000     -36.97250000     -70.51730000
S      -43.02490000     -31.11500000     -72.97100000
C      -45.25150000     -36.15520000     -72.22470000
H      -44.54030000     -35.35400000     -72.21290000
H      -44.99800000     -36.99090000     -72.86400000
C      -43.95090000     -32.70380000     -73.42500000
H      -43.94380000     -33.48120000     -72.63850000
H      -43.28090000     -33.18260000     -74.18360000
C      -45.32760000     -32.44790000     -73.97780000
H      -45.17340000     -31.71580000     -74.71170000
H      -45.70260000     -33.35560000     -74.55030000
C      -46.50020000     -35.49520000     -72.77070000
H      -47.31130000     -36.23650000     -72.99650000
H      -46.21840000     -35.03770000     -73.78920000
C      -47.16230000     -34.40930000     -71.92150000
C      -48.08150000     -34.73460000     -70.97310000
C      -46.97650000     -32.97950000     -71.98970000
H      -48.40530000     -35.73520000     -70.71610000
C      -47.70800000     -32.33350000     -70.96730000
C      -46.24380000     -31.99690000     -72.90830000
C      -46.33430000     -30.73210000     -72.43050000
S      -48.75680000     -33.35880000     -70.09940000
S      -47.42280000     -30.63940000     -71.01240000
H      -45.98430000     -29.83060000     -72.97370000
