40
Properties=species:S:1:pos:R:3 #=T CELL(abcABC):=T 1.889726e+02=T 90.00000=T Traj:=T positionsangstrom=T Step:=T 0=T Bead:=T pbc="F F F"
C      -41.52650000     -33.05510000     -70.72160000
C      -42.81390000     -32.56970000     -70.55380000
C      -43.79540000     -33.45510000     -70.04230000
C      -43.52340000     -34.74100000     -69.69620000
C      -42.13530000     -35.16290000     -69.63180000
C      -41.19370000     -34.30760000     -70.14830000
H      -40.65660000     -32.48930000     -71.12760000
H      -44.83320000     -33.08180000     -69.93180000
H      -41.83060000     -36.10780000     -69.15450000
H      -40.16010000     -34.63280000     -70.15110000
C      -44.72140000     -35.54990000     -69.30110000
H      -45.56530000     -34.86660000     -69.23980000
H      -44.60450000     -36.07800000     -68.37270000
C      -43.14560000     -31.18080000     -71.07700000
H      -44.02460000     -30.75570000     -70.66510000
H      -42.24720000     -30.59610000     -70.78030000
S      -45.05860000     -36.83490000     -70.59610000
S      -43.17650000     -31.14560000     -72.94120000
C      -45.27630000     -35.86850000     -72.19720000
H      -44.76220000     -34.93080000     -72.12050000
H      -44.79610000     -36.62000000     -72.86270000
C      -43.95540000     -32.69540000     -73.47150000
H      -43.97780000     -33.37470000     -72.58830000
H      -43.34470000     -33.23610000     -74.21430000
C      -45.44740000     -32.53800000     -73.92730000
H      -45.57930000     -31.76540000     -74.68270000
H      -45.75510000     -33.40120000     -74.41960000
C      -46.71610000     -35.62740000     -72.63240000
H      -47.29110000     -36.60220000     -72.45470000
H      -46.80160000     -35.33630000     -73.62090000
C      -47.30130000     -34.55590000     -71.78870000
C      -48.09770000     -34.80510000     -70.69670000
C      -47.12190000     -33.07420000     -71.95440000
H      -48.35210000     -35.75640000     -70.19480000
C      -47.88850000     -32.31560000     -71.06880000
C      -46.34340000     -32.19380000     -72.75640000
C      -46.61240000     -30.83660000     -72.54900000
S      -48.72900000     -33.28850000     -69.96180000
S      -47.68810000     -30.61210000     -71.18640000
H      -46.32570000     -29.94970000     -73.11220000
