40
Properties=species:S:1:pos:R:3 #=T CELL(abcABC):=T 1.889726e+02=T 90.00000=T Traj:=T positionsangstrom=T Step:=T 0=T Bead:=T pbc="F F F"
C      -41.57200000     -33.01630000     -70.53810000
C      -42.91730000     -32.57310000     -70.56660000
C      -43.92680000     -33.41490000     -70.17670000
C      -43.66210000     -34.75560000     -69.71530000
C      -42.32720000     -35.18950000     -69.69130000
C      -41.29740000     -34.31050000     -70.10470000
H      -40.78620000     -32.36710000     -70.88560000
H      -44.99150000     -33.16150000     -70.31100000
H      -42.02040000     -36.25730000     -69.38180000
H      -40.27410000     -34.58770000     -70.05790000
C      -44.77900000     -35.76120000     -69.30640000
H      -45.72940000     -35.29100000     -68.95700000
H      -44.44140000     -36.44010000     -68.50040000
C      -43.23390000     -31.17210000     -71.17270000
H      -44.32180000     -30.98770000     -70.96250000
H      -42.60990000     -30.38590000     -70.71970000
S      -45.09400000     -36.89220000     -70.64420000
S      -43.00330000     -31.01100000     -73.02120000
C      -45.10700000     -35.90450000     -72.18000000
H      -44.46410000     -35.05890000     -71.96790000
H      -44.67710000     -36.41570000     -73.00680000
C      -43.80690000     -32.53980000     -73.59400000
H      -43.47910000     -33.44640000     -73.04910000
H      -43.37750000     -32.68580000     -74.56700000
C      -45.36360000     -32.54310000     -73.80410000
H      -45.62680000     -31.78590000     -74.65430000
H      -45.53570000     -33.51800000     -74.30670000
C      -46.59200000     -35.46690000     -72.58400000
H      -47.18500000     -36.40620000     -72.51270000
H      -46.60270000     -35.02970000     -73.63140000
C      -47.27740000     -34.48520000     -71.72050000
C      -48.18130000     -34.79850000     -70.73840000
C      -46.99250000     -33.07660000     -71.80700000
H      -48.46860000     -35.83370000     -70.57260000
C      -47.84990000     -32.36070000     -70.98210000
C      -46.18370000     -32.17030000     -72.66100000
C      -46.53230000     -30.84660000     -72.46050000
S      -48.86570000     -33.41780000     -69.95800000
S      -47.70510000     -30.61240000     -71.17750000
H      -45.96870000     -30.00770000     -72.87450000
