40
Properties=species:S:1:pos:R:3 #=T CELL(abcABC):=T 1.889726e+02=T 90.00000=T Traj:=T positionsangstrom=T Step:=T 0=T Bead:=T pbc="F F F"
C      -41.62160000     -32.99900000     -70.60120000
C      -42.98760000     -32.54320000     -70.59570000
C      -44.02190000     -33.40700000     -70.23310000
C      -43.75400000     -34.75980000     -69.75760000
C      -42.42910000     -35.13110000     -69.63650000
C      -41.39070000     -34.28400000     -70.08120000
H      -40.81730000     -32.32480000     -70.88620000
H      -45.02460000     -33.01880000     -70.21060000
H      -42.26280000     -36.23650000     -69.33780000
H      -40.40750000     -34.74200000     -70.03970000
C      -44.89840000     -35.65400000     -69.33710000
H      -45.79770000     -35.08650000     -69.20790000
H      -44.74790000     -36.18890000     -68.37500000
C      -43.36030000     -31.20820000     -71.05570000
H      -44.46330000     -31.05190000     -70.99030000
H      -42.92750000     -30.29460000     -70.69420000
S      -45.14430000     -36.97810000     -70.59180000
S      -42.94230000     -31.09760000     -72.95310000
C      -45.17620000     -36.08440000     -72.19150000
H      -44.34860000     -35.31240000     -72.14380000
H      -44.74260000     -36.79650000     -72.95050000
C      -43.74610000     -32.63910000     -73.72100000
H      -43.61860000     -33.45110000     -73.02010000
H      -43.33760000     -32.79190000     -74.71920000
C      -45.27570000     -32.39160000     -73.88100000
H      -45.50020000     -31.70860000     -74.65030000
H      -45.63380000     -33.36770000     -74.20470000
C      -46.56780000     -35.54110000     -72.65170000
H      -47.18560000     -36.35370000     -72.69360000
H      -46.46540000     -35.22290000     -73.71080000
C      -47.18920000     -34.40170000     -71.79460000
C      -48.16220000     -34.75070000     -70.91100000
C      -46.99890000     -33.05280000     -71.89770000
H      -48.53480000     -35.74540000     -70.72730000
C      -47.78670000     -32.36190000     -71.01040000
C      -46.16180000     -32.05000000     -72.66250000
C      -46.42890000     -30.74980000     -72.31590000
S      -48.83800000     -33.35070000     -70.03200000
S      -47.57250000     -30.65230000     -71.01560000
H      -45.95540000     -29.82880000     -72.64840000
