40
Properties=species:S:1:pos:R:3 #=T CELL(abcABC):=T 1.889726e+02=T 90.00000=T Traj:=T positionsangstrom=T Step:=T 0=T Bead:=T pbc="F F F"
C      -41.45810000     -33.16810000     -70.88070000
C      -42.74930000     -32.59820000     -70.80400000
C      -43.83330000     -33.36430000     -70.18160000
C      -43.59100000     -34.69780000     -69.71440000
C      -42.30540000     -35.25520000     -69.84320000
C      -41.27690000     -34.48860000     -70.38370000
H      -40.66410000     -32.61690000     -71.38330000
H      -44.75640000     -32.78340000     -70.04800000
H      -42.07540000     -36.22090000     -69.33890000
H      -40.29930000     -34.91660000     -70.57410000
C      -44.74480000     -35.47000000     -69.15180000
H      -45.50690000     -34.74600000     -68.91200000
H      -44.46780000     -36.00760000     -68.26710000
C      -43.01030000     -31.23040000     -71.38230000
H      -43.89280000     -30.79450000     -70.85130000
H      -42.13360000     -30.60860000     -71.16670000
S      -45.39060000     -36.85300000     -70.23750000
S      -43.18640000     -31.04870000     -73.22450000
C      -45.42170000     -36.16260000     -71.95670000
H      -44.76120000     -35.27820000     -71.94420000
H      -45.08200000     -37.02040000     -72.56280000
C      -43.79250000     -32.70920000     -73.71810000
H      -43.30070000     -33.37880000     -73.04080000
H      -43.36630000     -32.78150000     -74.68430000
C      -45.38620000     -32.96750000     -73.84400000
H      -45.66560000     -32.69070000     -74.85370000
H      -45.52080000     -34.02820000     -73.83320000
C      -46.83850000     -35.71650000     -72.34280000
H      -47.61230000     -36.45490000     -72.21280000
H      -46.82860000     -35.37480000     -73.37690000
C      -47.25790000     -34.43740000     -71.53610000
C      -48.04910000     -34.56780000     -70.42920000
C      -47.03630000     -33.05890000     -71.84570000
H      -48.35840000     -35.45670000     -69.89330000
C      -47.76950000     -32.22000000     -70.98200000
C      -46.33760000     -32.29060000     -72.90760000
C      -46.55360000     -30.93620000     -72.69630000
S      -48.57350000     -33.12930000     -69.68700000
S      -47.59770000     -30.49410000     -71.37710000
H      -45.98520000     -30.13640000     -73.22070000
