40
Properties=species:S:1:pos:R:3 #=T CELL(abcABC):=T 1.889726e+02=T 90.00000=T Traj:=T positionsangstrom=T Step:=T 0=T Bead:=T pbc="F F F"
C      -41.56120000     -33.58800000     -71.82150000
C      -42.76230000     -32.83490000     -71.74700000
C      -43.73530000     -33.22350000     -70.75020000
C      -43.39910000     -34.30480000     -69.84380000
C      -42.17630000     -34.98750000     -69.96260000
C      -41.26720000     -34.63020000     -70.94720000
H      -40.70660000     -33.43020000     -72.54090000
H      -44.60260000     -32.65580000     -70.47170000
H      -41.91860000     -35.81320000     -69.27790000
H      -40.28410000     -35.14210000     -71.12490000
C      -44.36510000     -34.71000000     -68.83890000
H      -45.09760000     -33.92170000     -68.51260000
H      -44.01400000     -34.98520000     -67.78800000
C      -43.12200000     -31.80930000     -72.74250000
H      -44.02880000     -31.33790000     -72.38360000
H      -42.41110000     -31.05760000     -72.94160000
S      -45.27970000     -36.31480000     -69.26350000
S      -43.49570000     -32.50720000     -74.36970000
C      -45.76730000     -36.16140000     -71.13940000
H      -45.02600000     -35.60160000     -71.73570000
H      -45.63060000     -37.21600000     -71.35190000
C      -44.68530000     -33.83110000     -74.00300000
H      -44.46070000     -34.39440000     -73.07790000
H      -44.54140000     -34.65480000     -74.76440000
C      -46.23390000     -33.46170000     -73.98940000
H      -46.54630000     -32.89850000     -74.93220000
H      -46.93960000     -34.38180000     -73.85740000
C      -47.15380000     -35.61660000     -71.16180000
H      -47.75100000     -36.34450000     -70.64740000
H      -47.48650000     -35.80640000     -72.18500000
C      -47.36720000     -34.17870000     -70.76100000
C      -47.84210000     -33.87130000     -69.53140000
C      -47.17650000     -32.95890000     -71.52480000
H      -48.07900000     -34.58340000     -68.84230000
C      -47.41810000     -31.83670000     -70.76780000
C      -46.62040000     -32.54020000     -72.82800000
C      -46.62550000     -31.11990000     -72.94430000
S      -47.93330000     -32.17840000     -69.12310000
S      -47.16650000     -30.29140000     -71.50250000
H      -46.28620000     -30.61040000     -73.84050000
