40
Properties=species:S:1:pos:R:3 #=T CELL(abcABC):=T 1.889726e+02=T 90.00000=T Traj:=T positionsangstrom=T Step:=T 0=T Bead:=T pbc="F F F"
C      -41.64630000     -33.26700000     -71.34380000
C      -42.83970000     -32.56740000     -71.02400000
C      -43.83250000     -33.15730000     -70.20400000
C      -43.65390000     -34.41070000     -69.67430000
C      -42.54000000     -35.16430000     -70.05990000
C      -41.51330000     -34.58110000     -70.80390000
H      -40.92540000     -32.84650000     -72.07150000
H      -44.66630000     -32.53150000     -69.94900000
H      -42.46080000     -36.18440000     -69.77990000
H      -40.58870000     -35.15540000     -71.01110000
C      -44.71750000     -35.19890000     -68.85320000
H      -45.58340000     -34.57750000     -68.71140000
H      -44.37320000     -35.51780000     -67.89890000
C      -43.16250000     -31.29630000     -71.77980000
H      -44.15270000     -30.98780000     -71.52570000
H      -42.38110000     -30.51650000     -71.61690000
S      -45.27170000     -36.76660000     -69.78610000
S      -43.14290000     -31.55110000     -73.64390000
C      -45.37490000     -36.28680000     -71.61060000
H      -44.60250000     -35.60530000     -71.73730000
H      -45.18330000     -37.14270000     -72.24590000
C      -44.05220000     -33.21200000     -73.83270000
H      -43.81390000     -33.86310000     -73.03520000
H      -43.67250000     -33.74440000     -74.68620000
C      -45.57910000     -33.05130000     -73.94790000
H      -45.73120000     -32.74710000     -74.98570000
H      -45.94090000     -34.08610000     -73.92860000
C      -46.74460000     -35.67460000     -71.97290000
H      -47.60510000     -36.31760000     -71.80150000
H      -46.67880000     -35.56600000     -73.09690000
C      -47.18750000     -34.34750000     -71.28380000
C      -48.01570000     -34.43560000     -70.22220000
C      -46.99660000     -32.97440000     -71.74610000
H      -48.47260000     -35.33940000     -69.77800000
C      -47.59770000     -32.09730000     -70.85010000
C      -46.29810000     -32.29420000     -72.86170000
C      -46.48900000     -30.93840000     -72.79720000
S      -48.53850000     -32.91590000     -69.62180000
S      -47.40510000     -30.38270000     -71.33860000
H      -45.97120000     -30.24140000     -73.43330000
