40
Properties=species:S:1:pos:R:3 #=T CELL(abcABC):=T 1.889726e+02=T 90.00000=T Traj:=T positionsangstrom=T Step:=T 0=T Bead:=T pbc="F F F"
C      -41.52280000     -33.81720000     -72.35010000
C      -42.69720000     -33.07250000     -72.22590000
C      -43.49790000     -33.29830000     -71.08530000
C      -43.14830000     -34.26390000     -70.14150000
C      -41.87500000     -34.87570000     -70.17620000
C      -41.16590000     -34.72090000     -71.35190000
H      -41.11070000     -33.88090000     -73.35290000
H      -44.44130000     -32.76110000     -71.14960000
H      -41.39930000     -35.52570000     -69.45540000
H      -40.24730000     -35.24080000     -71.52030000
C      -44.02040000     -34.51910000     -68.97590000
H      -44.83770000     -33.81420000     -68.79780000
H      -43.47860000     -34.45970000     -68.01700000
C      -43.13180000     -32.13960000     -73.29300000
H      -43.83670000     -31.37730000     -72.83220000
H      -42.39070000     -31.61400000     -73.78800000
S      -44.90130000     -36.17150000     -69.10700000
S      -44.09860000     -32.90680000     -74.67740000
C      -45.78930000     -36.08960000     -70.66280000
H      -45.08890000     -35.64270000     -71.36110000
H      -45.92040000     -37.17150000     -71.00910000
C      -45.24750000     -34.25850000     -73.97450000
H      -44.72050000     -34.56530000     -73.03650000
H      -45.16880000     -35.14550000     -74.63640000
C      -46.76380000     -33.87090000     -73.57070000
H      -47.35340000     -33.71050000     -74.47540000
H      -47.27430000     -34.76040000     -73.14190000
C      -47.17180000     -35.44230000     -70.46430000
H      -47.66940000     -35.89390000     -69.62730000
H      -47.97450000     -35.73620000     -71.22380000
C      -47.32560000     -33.91490000     -70.27220000
C      -47.73120000     -33.48430000     -69.03220000
C      -47.21100000     -32.84700000     -71.23800000
H      -48.07050000     -33.98860000     -68.08930000
C      -47.31490000     -31.61300000     -70.58260000
C      -46.91220000     -32.74010000     -72.65060000
C      -46.84400000     -31.37760000     -73.00210000
S      -47.74110000     -31.68040000     -68.92690000
S      -47.04880000     -30.23030000     -71.66930000
H      -46.44950000     -31.06620000     -73.92520000
