40
Properties=species:S:1:pos:R:3 #=T CELL(abcABC):=T 1.889726e+02=T 90.00000=T Traj:=T positionsangstrom=T Step:=T 0=T Bead:=T pbc="F F F"
C      -48.80600000     -32.87150000     -67.91350000
C      -47.94280000     -33.68270000     -68.67820000
C      -47.93260000     -33.63630000     -70.08840000
C      -48.72720000     -32.69240000     -70.76190000
C      -49.55610000     -31.83350000     -70.01290000
C      -49.64640000     -31.98820000     -68.59490000
H      -48.78680000     -33.00250000     -66.84850000
H      -47.36800000     -34.39850000     -70.78350000
H      -50.34080000     -31.20240000     -70.49220000
H      -50.13220000     -31.29110000     -67.93170000
C      -48.73470000     -32.76660000     -72.23640000
H      -49.69190000     -32.76030000     -72.65410000
H      -48.17530000     -33.64720000     -72.67110000
C      -46.93980000     -34.38590000     -67.88510000
H      -47.32550000     -34.47360000     -66.89800000
H      -46.72150000     -35.47470000     -68.08590000
S      -47.79430000     -31.28930000     -73.00020000
S      -45.33670000     -33.54960000     -67.71510000
C      -46.40960000     -32.14110000     -73.76320000
H      -46.65650000     -33.15090000     -74.19440000
H      -46.01180000     -31.64730000     -74.70790000
C      -44.57890000     -33.95520000     -69.39070000
H      -45.31510000     -33.87620000     -70.18990000
H      -44.08650000     -34.94760000     -69.36450000
C      -43.46430000     -32.97320000     -69.88750000
H      -43.78550000     -31.95510000     -70.19990000
H      -42.88160000     -32.84970000     -69.04110000
C      -45.29550000     -32.35400000     -72.82610000
H      -45.63600000     -32.77840000     -71.82850000
H      -44.94780000     -31.37740000     -72.50740000
C      -44.13920000     -33.14340000     -73.30040000
C      -43.98570000     -33.56200000     -74.60000000
C      -43.07840000     -33.66120000     -72.46360000
H      -44.67490000     -33.34160000     -75.32240000
C      -42.17360000     -34.45220000     -73.18440000
C      -42.67580000     -33.54960000     -71.03480000
C      -41.70500000     -34.46900000     -70.74660000
S      -42.64090000     -34.59770000     -74.87320000
S      -41.04430000     -35.25060000     -72.16750000
H      -41.07170000     -34.56570000     -69.86300000
