40
Properties=species:S:1:pos:R:3 #=T CELL(abcABC):=T 1.889726e+02=T 90.00000=T Traj:=T positionsangstrom=T Step:=T 0=T Bead:=T pbc="F F F"
C      -42.10650000     -35.88940000     -72.07370000
C      -43.42650000     -36.03060000     -72.49200000
C      -44.39500000     -36.33680000     -71.49340000
C      -44.11990000     -36.38340000     -70.16410000
C      -42.77890000     -36.23150000     -69.76150000
C      -41.79220000     -35.95020000     -70.71340000
H      -41.35560000     -35.78110000     -72.84310000
H      -45.44220000     -36.55550000     -71.79860000
H      -42.52180000     -36.28500000     -68.72040000
H      -40.70190000     -35.92620000     -70.46550000
C      -45.27390000     -36.66910000     -69.20810000
H      -45.19580000     -37.68870000     -68.76450000
H      -46.32140000     -36.70490000     -69.63390000
C      -43.79440000     -35.93730000     -73.93880000
H      -43.10980000     -36.62040000     -74.45390000
H      -44.79170000     -36.23650000     -74.14460000
S      -45.25500000     -35.36870000     -67.91160000
S      -43.49250000     -34.23540000     -74.67370000
C      -45.59020000     -33.73300000     -68.76440000
H      -46.10700000     -33.13400000     -68.00500000
H      -44.63190000     -33.27020000     -68.91480000
C      -44.93650000     -33.34300000     -73.93490000
H      -45.75250000     -34.11120000     -73.74380000
H      -45.29420000     -32.68430000     -74.68220000
C      -44.47560000     -32.63900000     -72.63700000
H      -44.39530000     -33.34100000     -71.83780000
H      -43.47730000     -32.12400000     -72.68540000
C      -46.53450000     -33.85750000     -69.99400000
H      -47.44820000     -34.53800000     -69.92640000
H      -45.91300000     -34.28680000     -70.72380000
C      -47.06790000     -32.44470000     -70.35590000
C      -48.09880000     -31.91730000     -69.64200000
C      -46.52360000     -31.48300000     -71.31460000
H      -48.66020000     -32.38720000     -68.84410000
C      -47.18010000     -30.28960000     -71.30260000
C      -45.51740000     -31.51480000     -72.30600000
C      -45.50130000     -30.35710000     -73.06330000
S      -48.48860000     -30.27620000     -70.13700000
S      -46.70000000     -29.18880000     -72.53840000
H      -44.72340000     -30.20920000     -73.77170000
