40
Properties=species:S:1:pos:R:3 #=T CELL(abcABC):=T 1.889726e+02=T 90.00000=T Traj:=T positionsangstrom=T Step:=T 0=T Bead:=T pbc="F F F"
C      -42.35790000     -34.75060000     -73.28710000
C      -43.28880000     -33.73710000     -73.00420000
C      -43.45700000     -33.38360000     -71.61920000
C      -42.76640000     -33.97170000     -70.59200000
C      -41.85290000     -35.02580000     -70.91050000
C      -41.73300000     -35.43610000     -72.21940000
H      -42.25280000     -34.92840000     -74.33380000
H      -44.15310000     -32.58690000     -71.33260000
H      -41.16250000     -35.39400000     -70.15110000
H      -41.05800000     -36.21590000     -72.52280000
C      -43.05830000     -33.61260000     -69.16430000
H      -43.47550000     -32.65260000     -69.25170000
H      -42.07810000     -33.53300000     -68.63700000
C      -44.27060000     -32.98650000     -73.88300000
H      -44.78580000     -32.32760000     -73.21660000
H      -43.70480000     -32.41440000     -74.65050000
S      -44.13080000     -35.00040000     -68.33580000
S      -45.40240000     -34.03670000     -74.87110000
C      -45.21220000     -35.59430000     -69.71540000
H      -44.71970000     -35.33500000     -70.66100000
H      -45.16650000     -36.74050000     -69.67920000
C      -46.31070000     -34.87970000     -73.54300000
H      -45.55870000     -35.02200000     -72.75380000
H      -46.55960000     -35.87480000     -74.00490000
C      -47.60290000     -34.23680000     -73.02090000
H      -48.29700000     -33.93460000     -73.80050000
H      -48.10090000     -34.94600000     -72.29580000
C      -46.63810000     -35.08930000     -69.70570000
H      -47.10270000     -35.46650000     -68.79100000
H      -47.21610000     -35.56650000     -70.49850000
C      -46.66870000     -33.54190000     -69.79910000
C      -46.46940000     -32.81450000     -68.60610000
C      -46.95830000     -32.72480000     -70.94060000
H      -46.22310000     -33.35140000     -67.67290000
C      -46.93530000     -31.33260000     -70.54980000
C      -47.30620000     -32.93800000     -72.29870000
C      -47.37640000     -31.72910000     -72.96850000
S      -46.73240000     -31.07330000     -68.89430000
S      -47.12560000     -30.29070000     -72.02670000
H      -47.86230000     -31.61570000     -73.95580000
