40
Properties=species:S:1:pos:R:3 #=T CELL(abcABC):=T 1.889726e+02=T 90.00000=T Traj:=T positionsangstrom=T Step:=T 0=T Bead:=T pbc="F F F"
C      -45.02470000     -30.11580000     -70.00150000
C      -46.26570000     -30.28980000     -70.63960000
C      -47.21420000     -31.14180000     -70.05770000
C      -46.99000000     -31.60710000     -68.75020000
C      -45.90500000     -31.16450000     -68.03290000
C      -44.79450000     -30.55240000     -68.71010000
H      -44.23070000     -29.60460000     -70.60310000
H      -48.12090000     -31.48120000     -70.56630000
H      -45.83670000     -31.53280000     -67.00440000
H      -43.84590000     -30.34490000     -68.22790000
C      -48.01480000     -32.62360000     -68.21730000
H      -48.87360000     -32.71430000     -68.98710000
H      -48.41970000     -32.26480000     -67.30770000
C      -46.52340000     -29.62100000     -71.95170000
H      -47.52960000     -29.96880000     -72.25970000
H      -46.51650000     -28.50100000     -71.97110000
S      -47.30280000     -34.33340000     -68.00370000
S      -45.28290000     -30.02800000     -73.30380000
C      -46.58840000     -34.91940000     -69.59900000
H      -46.67590000     -36.05620000     -69.60950000
H      -47.28220000     -34.60480000     -70.38920000
C      -45.78900000     -31.71310000     -73.75750000
H      -45.13190000     -31.87540000     -74.68100000
H      -46.79990000     -31.72370000     -74.13340000
C      -45.61990000     -32.83470000     -72.69610000
H      -45.21860000     -32.43840000     -71.82820000
H      -46.57700000     -33.24400000     -72.38410000
C      -45.07610000     -34.44330000     -69.85300000
H      -44.54850000     -34.57820000     -68.86100000
H      -44.99470000     -33.35970000     -70.10620000
C      -44.54900000     -35.39460000     -70.86090000
C      -43.90360000     -36.58400000     -70.56530000
C      -44.48880000     -35.11280000     -72.31290000
H      -43.78270000     -36.92990000     -69.49150000
C      -43.69290000     -36.01260000     -72.97780000
C      -44.85000000     -33.97100000     -73.17990000
C      -44.39680000     -34.10370000     -74.45450000
S      -43.20720000     -37.36320000     -72.02450000
S      -43.45840000     -35.55750000     -74.70110000
H      -44.50320000     -33.42170000     -75.30410000
