40
Properties=species:S:1:pos:R:3 #=T CELL(abcABC):=T 1.889726e+02=T 90.00000=T Traj:=T positionsangstrom=T Step:=T 0=T Bead:=T pbc="F F F"
C      -42.45470000     -34.63180000     -73.11090000
C      -43.35820000     -33.50770000     -72.87430000
C      -43.53430000     -33.15640000     -71.51510000
C      -42.84050000     -33.84540000     -70.43220000
C      -41.89960000     -34.84970000     -70.77740000
C      -41.70910000     -35.20930000     -72.11980000
H      -42.32150000     -34.92690000     -74.19000000
H      -44.34580000     -32.41200000     -71.32680000
H      -41.49970000     -35.42780000     -69.92880000
H      -41.16260000     -36.12430000     -72.26750000
C      -43.28200000     -33.77100000     -69.02180000
H      -43.85670000     -32.88250000     -68.76860000
H      -42.32890000     -33.81260000     -68.35810000
C      -43.97220000     -32.87070000     -74.05360000
H      -44.38550000     -31.88050000     -73.75150000
H      -43.37640000     -32.61930000     -74.94130000
S      -44.16560000     -35.22850000     -68.44590000
S      -45.22600000     -33.95950000     -74.83120000
C      -45.28380000     -35.59640000     -69.88100000
H      -44.80850000     -35.06710000     -70.67200000
H      -45.31810000     -36.64410000     -70.02690000
C      -46.15670000     -34.85080000     -73.62870000
H      -45.50860000     -35.17240000     -72.81080000
H      -46.57850000     -35.72910000     -74.11050000
C      -47.46110000     -34.16180000     -73.12970000
H      -47.94760000     -34.09500000     -74.13640000
H      -48.08100000     -34.92220000     -72.61520000
C      -46.81340000     -35.20140000     -69.89900000
H      -47.40240000     -35.73440000     -69.12820000
H      -47.19500000     -35.54520000     -70.82240000
C      -46.90080000     -33.65620000     -69.87250000
C      -46.77580000     -32.94820000     -68.68850000
C      -46.92750000     -32.78020000     -71.01520000
H      -46.45770000     -33.49150000     -67.75270000
C      -46.83000000     -31.41170000     -70.61400000
C      -47.37150000     -32.88110000     -72.36390000
C      -47.41970000     -31.65220000     -72.98560000
S      -46.71200000     -31.24320000     -68.87830000
S      -46.98850000     -30.27130000     -71.87160000
H      -47.74660000     -31.39990000     -73.95740000
