40
Properties=species:S:1:pos:R:3 #=T CELL(abcABC):=T 1.889726e+02=T 90.00000=T Traj:=T positionsangstrom=T Step:=T 0=T Bead:=T pbc="F F F"
C      -46.31090000     -29.32750000     -71.69310000
C      -47.08060000     -30.46480000     -71.93500000
C      -47.52650000     -31.26270000     -70.86950000
C      -47.19190000     -30.98790000     -69.49010000
C      -46.46990000     -29.77310000     -69.29350000
C      -46.13790000     -28.93540000     -70.37060000
H      -46.04160000     -28.71430000     -72.60490000
H      -48.14700000     -32.11770000     -71.10910000
H      -46.19380000     -29.48710000     -68.36310000
H      -45.57000000     -27.99920000     -70.17360000
C      -47.73720000     -31.90360000     -68.45780000
H      -48.27330000     -32.68210000     -69.01220000
H      -48.52470000     -31.38950000     -67.87370000
C      -47.40550000     -30.90550000     -73.35980000
H      -47.89080000     -31.93660000     -73.41300000
H      -48.03500000     -30.15010000     -73.79400000
S      -46.47570000     -32.73600000     -67.43560000
S      -45.89240000     -30.89430000     -74.41040000
C      -45.95570000     -34.19940000     -68.47740000
H      -45.28260000     -34.79930000     -67.80480000
H      -46.87190000     -34.79500000     -68.68080000
C      -45.37950000     -32.71590000     -74.25190000
H      -44.80890000     -32.90880000     -75.17540000
H      -46.29620000     -33.37170000     -74.28800000
C      -44.55620000     -33.02540000     -72.95580000
H      -43.65280000     -32.48100000     -72.97210000
H      -45.18310000     -32.65250000     -72.10970000
C      -45.21700000     -33.93740000     -69.77430000
H      -44.38950000     -33.25510000     -69.59510000
H      -45.85520000     -33.53070000     -70.61950000
C      -44.55130000     -35.25070000     -70.31550000
C      -44.31420000     -36.42990000     -69.54100000
C      -44.16600000     -35.36360000     -71.72070000
H      -44.45520000     -36.59530000     -68.54590000
C      -43.51660000     -36.58900000     -71.96180000
C      -44.15700000     -34.50960000     -72.88330000
C      -43.54790000     -35.13070000     -74.02230000
S      -43.36390000     -37.57170000     -70.53690000
S      -42.93870000     -36.66990000     -73.63580000
H      -43.59490000     -34.81400000     -75.00050000
