40
Properties=species:S:1:pos:R:3 #=T CELL(abcABC):=T 1.889726e+02=T 90.00000=T Traj:=T positionsangstrom=T Step:=T 0=T Bead:=T pbc="F F F"
C      -46.29720000     -29.82290000     -71.78230000
C      -47.23680000     -30.89050000     -71.93850000
C      -47.94100000     -31.48650000     -70.85230000
C      -47.40700000     -31.16410000     -69.55080000
C      -46.37920000     -30.19060000     -69.38560000
C      -45.92500000     -29.47110000     -70.46350000
H      -45.90110000     -29.29250000     -72.69400000
H      -48.65100000     -32.33830000     -71.03110000
H      -46.02570000     -29.96760000     -68.42440000
H      -45.11480000     -28.72030000     -70.33200000
C      -48.00350000     -31.93060000     -68.42340000
H      -48.72710000     -32.64710000     -68.80720000
H      -48.47830000     -31.34090000     -67.65550000
C      -47.66760000     -31.22390000     -73.34050000
H      -48.16400000     -32.20590000     -73.44390000
H      -48.48700000     -30.46750000     -73.54320000
S      -46.65060000     -32.83090000     -67.51260000
S      -46.28470000     -31.08250000     -74.52340000
C      -45.88610000     -34.34450000     -68.28980000
H      -45.27040000     -34.70910000     -67.50540000
H      -46.63270000     -35.02750000     -68.54680000
C      -45.50940000     -32.73810000     -74.29870000
H      -44.80280000     -32.73340000     -75.09430000
H      -46.35410000     -33.49450000     -74.51420000
C      -44.84590000     -32.92310000     -72.86010000
H      -44.35910000     -32.00940000     -72.52730000
H      -45.70870000     -32.93010000     -72.19850000
C      -45.06490000     -33.89930000     -69.55620000
H      -44.40750000     -33.05410000     -69.39240000
H      -45.76690000     -33.53000000     -70.31630000
C      -44.39400000     -35.04790000     -70.21740000
C      -44.04280000     -36.18440000     -69.61090000
C      -43.97520000     -35.06260000     -71.63960000
H      -44.24590000     -36.56990000     -68.64730000
C      -43.26560000     -36.24570000     -71.97630000
C      -44.08520000     -34.21520000     -72.85970000
C      -43.43300000     -34.70920000     -73.91740000
S      -43.05540000     -37.34720000     -70.60530000
S      -42.58660000     -36.24560000     -73.58100000
H      -43.30020000     -34.28340000     -74.86820000
