40
Properties=species:S:1:pos:R:3 #=T CELL(abcABC):=T 1.889726e+02=T 90.00000=T Traj:=T positionsangstrom=T Step:=T 0=T Bead:=T pbc="F F F"
C      -46.32860000     -29.55490000     -71.80130000
C      -47.36650000     -30.45650000     -72.10740000
C      -47.93260000     -31.32840000     -71.14780000
C      -47.38640000     -31.26840000     -69.84690000
C      -46.44680000     -30.27580000     -69.45190000
C      -45.91210000     -29.44920000     -70.45960000
H      -45.81070000     -29.05840000     -72.60580000
H      -48.66330000     -32.12370000     -71.44360000
H      -46.09310000     -30.14820000     -68.38540000
H      -45.09310000     -28.76670000     -70.29060000
C      -48.04620000     -32.29070000     -68.91000000
H      -48.50910000     -33.15190000     -69.47840000
H      -48.78270000     -31.80580000     -68.27200000
C      -47.82120000     -30.72080000     -73.56100000
H      -48.69650000     -31.35250000     -73.53210000
H      -48.15460000     -29.74770000     -74.01560000
S      -47.03120000     -33.09910000     -67.57720000
S      -46.55240000     -31.55990000     -74.69980000
C      -45.78990000     -34.29670000     -68.31580000
H      -44.96820000     -34.26480000     -67.58060000
H      -46.22970000     -35.37680000     -68.20790000
C      -46.04860000     -33.08880000     -73.67040000
H      -46.01420000     -33.78800000     -74.45000000
H      -46.96320000     -33.17670000     -73.04670000
C      -44.77950000     -32.91180000     -72.86810000
H      -44.09450000     -32.12070000     -73.25790000
H      -45.03270000     -32.55560000     -71.87180000
C      -45.44630000     -34.01200000     -69.74270000
H      -45.03300000     -33.01580000     -69.95690000
H      -46.45250000     -34.01240000     -70.25550000
C      -44.38100000     -35.02360000     -70.28820000
C      -43.82250000     -35.97650000     -69.46760000
C      -43.88520000     -35.06980000     -71.62220000
H      -44.09010000     -36.08500000     -68.40820000
C      -42.96920000     -36.12620000     -71.75770000
C      -43.96070000     -34.27410000     -72.84210000
C      -43.02970000     -34.60550000     -73.75950000
S      -42.84500000     -37.09630000     -70.36100000
S      -42.11590000     -36.07780000     -73.33010000
H      -42.83960000     -34.15080000     -74.74430000
