40
Properties=species:S:1:pos:R:3 #=T CELL(abcABC):=T 1.889726e+02=T 90.00000=T Traj:=T positionsangstrom=T Step:=T 0=T Bead:=T pbc="F F F"
C      -45.23840000     -31.14720000     -68.13470000
C      -45.68160000     -32.42690000     -68.18880000
C      -44.87540000     -33.57940000     -68.27700000
C      -43.48470000     -33.44710000     -68.29440000
C      -43.05680000     -32.07840000     -68.20050000
C      -43.87050000     -30.96630000     -68.10860000
H      -45.77100000     -30.21280000     -68.17440000
H      -45.47170000     -34.48670000     -68.37600000
H      -42.00380000     -31.97830000     -68.14650000
H      -43.38560000     -30.00250000     -68.09670000
C      -42.54640000     -34.62530000     -68.46900000
H      -42.93150000     -35.55780000     -68.13590000
H      -41.57170000     -34.50260000     -67.88550000
C      -47.29790000     -32.44170000     -68.05710000
H      -47.68680000     -33.49130000     -67.84030000
H      -47.45070000     -31.82120000     -67.24100000
S      -41.99530000     -35.05340000     -70.15120000
S      -48.34430000     -31.99320000     -69.44810000
C      -43.34920000     -34.51900000     -71.27060000
H      -43.62830000     -33.49960000     -71.32620000
H      -42.80730000     -34.75050000     -72.14790000
C      -47.65410000     -32.50050000     -71.07410000
H      -48.42850000     -32.04290000     -71.76070000
H      -47.55890000     -33.53050000     -71.18870000
C      -46.25130000     -31.90770000     -71.43620000
H      -46.39500000     -30.83440000     -71.53570000
H      -45.58350000     -32.11250000     -70.63540000
C      -44.76980000     -35.16810000     -71.26130000
H      -45.32530000     -34.70920000     -70.45860000
H      -44.65770000     -36.21720000     -71.00920000
C      -45.15840000     -34.94680000     -72.67900000
C      -45.10230000     -35.95350000     -73.58100000
C      -45.73430000     -33.78620000     -73.35200000
H      -44.78580000     -36.99820000     -73.60190000
C      -45.89370000     -33.90800000     -74.72230000
C      -46.07630000     -32.39770000     -72.85350000
C      -46.50170000     -31.54700000     -73.83330000
S      -45.62300000     -35.58630000     -75.24310000
S      -46.48940000     -32.32670000     -75.39140000
H      -46.74480000     -30.51920000     -73.63510000
