40
Properties=species:S:1:pos:R:3 #=T CELL(abcABC):=T 1.889726e+02=T 90.00000=T Traj:=T positionsangstrom=T Step:=T 0=T Bead:=T pbc="F F F"
C      -42.06730000     -35.70250000     -72.01460000
C      -43.34140000     -35.99230000     -72.54690000
C      -44.42650000     -36.24060000     -71.66920000
C      -44.21820000     -36.27600000     -70.24780000
C      -43.00800000     -35.76000000     -69.77870000
C      -41.94000000     -35.57020000     -70.63660000
H      -41.27350000     -35.46760000     -72.77520000
H      -45.33420000     -36.64260000     -72.09970000
H      -42.89610000     -35.69460000     -68.69590000
H      -41.04490000     -35.17760000     -70.22350000
C      -45.32480000     -36.78640000     -69.40420000
H      -45.13200000     -37.76310000     -69.00830000
H      -46.25840000     -36.75300000     -69.98260000
C      -43.61900000     -35.90570000     -74.00760000
H      -42.91890000     -36.51580000     -74.55660000
H      -44.68510000     -36.16960000     -74.27060000
S      -45.55440000     -35.73420000     -67.94740000
S      -43.35520000     -34.19190000     -74.73450000
C      -45.50390000     -34.01870000     -68.70760000
H      -45.94490000     -33.42360000     -67.90420000
H      -44.46750000     -33.74800000     -68.74920000
C      -44.80880000     -33.21880000     -73.98750000
H      -45.57920000     -33.86820000     -73.80940000
H      -45.08790000     -32.49130000     -74.78740000
C      -44.37740000     -32.40600000     -72.74820000
H      -44.17530000     -33.04530000     -71.85920000
H      -43.43660000     -31.76980000     -72.94020000
C      -46.32960000     -33.86920000     -69.98400000
H      -47.19820000     -34.49600000     -69.81890000
H      -45.76560000     -34.27760000     -70.86550000
C      -46.89730000     -32.52650000     -70.28940000
C      -48.00050000     -32.10430000     -69.60690000
C      -46.45930000     -31.51910000     -71.27140000
H      -48.48440000     -32.81960000     -68.86010000
C      -47.24270000     -30.33640000     -71.15750000
C      -45.42490000     -31.41740000     -72.31910000
C      -45.40800000     -30.18230000     -72.96050000
S      -48.56870000     -30.49410000     -70.07260000
S      -46.76890000     -29.15280000     -72.40870000
H      -44.79010000     -29.72800000     -73.73610000
