40
Properties=species:S:1:pos:R:3 #=T CELL(abcABC):=T 1.889726e+02=T 90.00000=T Traj:=T positionsangstrom=T Step:=T 0=T Bead:=T pbc="F F F"
C      -46.52350000     -29.79390000     -71.87670000
C      -47.51830000     -30.74000000     -72.21720000
C      -47.95420000     -31.60080000     -71.23980000
C      -47.55790000     -31.50370000     -69.90820000
C      -46.59210000     -30.53830000     -69.65370000
C      -46.02850000     -29.67550000     -70.61080000
H      -46.19710000     -29.26210000     -72.77760000
H      -48.59970000     -32.37870000     -71.54340000
H      -46.18650000     -30.48660000     -68.66540000
H      -45.15630000     -29.04780000     -70.38790000
C      -48.22320000     -32.40800000     -68.94010000
H      -48.94540000     -33.16690000     -69.44780000
H      -48.90700000     -31.78970000     -68.35440000
C      -48.00220000     -31.00100000     -73.58980000
H      -48.97920000     -31.41180000     -73.57370000
H      -48.06040000     -30.11810000     -74.22530000
S      -47.10450000     -33.11410000     -67.68120000
S      -46.87900000     -32.13310000     -74.59920000
C      -46.04090000     -34.35080000     -68.47930000
H      -45.37650000     -34.67160000     -67.66580000
H      -46.72060000     -35.23390000     -68.75730000
C      -46.02140000     -33.26490000     -73.36890000
H      -45.81640000     -34.18430000     -73.85410000
H      -46.61620000     -33.56730000     -72.47870000
C      -44.66610000     -32.71040000     -72.84690000
H      -44.21260000     -32.01620000     -73.62150000
H      -44.67640000     -32.20850000     -71.87210000
C      -45.38490000     -33.91000000     -69.75960000
H      -44.76180000     -32.97960000     -69.66080000
H      -46.19880000     -33.75600000     -70.44730000
C      -44.42270000     -34.99390000     -70.29250000
C      -43.93000000     -36.04300000     -69.59110000
C      -43.77480000     -34.80490000     -71.56920000
H      -44.41120000     -36.33940000     -68.64440000
C      -42.78670000     -35.78580000     -71.78610000
C      -43.62330000     -33.80770000     -72.58500000
C      -42.55050000     -34.00750000     -73.42720000
S      -42.75450000     -36.98970000     -70.44900000
S      -41.69490000     -35.47820000     -73.18110000
H      -42.29160000     -33.32780000     -74.20290000
