40
Properties=species:S:1:pos:R:3 #=T CELL(abcABC):=T 1.889726e+02=T 90.00000=T Traj:=T positionsangstrom=T Step:=T 0=T Bead:=T pbc="F F F"
C      -46.77040000     -30.11860000     -71.99690000
C      -47.74360000     -31.21530000     -72.01190000
C      -48.14100000     -31.76190000     -70.75010000
C      -47.56800000     -31.33720000     -69.54110000
C      -46.53720000     -30.35060000     -69.61850000
C      -46.16150000     -29.73840000     -70.77710000
H      -46.35720000     -29.81800000     -72.90620000
H      -48.87240000     -32.56040000     -70.62230000
H      -46.06010000     -30.11720000     -68.67280000
H      -45.35200000     -29.06280000     -70.87810000
C      -47.95960000     -31.97700000     -68.23750000
H      -49.00040000     -32.31760000     -68.38200000
H      -47.97260000     -31.28990000     -67.37830000
C      -48.31950000     -31.81850000     -73.34120000
H      -48.58320000     -32.84800000     -73.22560000
H      -49.02110000     -31.19670000     -73.79730000
S      -46.89930000     -33.37450000     -67.62520000
S      -46.93120000     -31.78640000     -74.52700000
C      -46.57780000     -34.57360000     -69.11970000
H      -46.29240000     -35.55250000     -68.65260000
H      -47.51730000     -34.69480000     -69.67740000
C      -45.97270000     -33.23070000     -73.93700000
H      -45.76870000     -33.85620000     -74.74360000
H      -46.72150000     -33.75830000     -73.32730000
C      -44.67140000     -32.74570000     -73.23790000
H      -44.14050000     -32.14290000     -73.97520000
H      -44.91830000     -32.13240000     -72.42420000
C      -45.60450000     -33.98680000     -70.17110000
H      -45.32400000     -32.99460000     -69.87950000
H      -46.17170000     -33.74200000     -71.07020000
C      -44.37450000     -34.83470000     -70.43100000
C      -43.99250000     -35.93360000     -69.72050000
C      -43.63490000     -34.73230000     -71.64110000
H      -44.44280000     -36.35050000     -68.81420000
C      -42.49620000     -35.54370000     -71.61190000
C      -43.70310000     -33.88100000     -72.82190000
C      -42.71140000     -34.23540000     -73.74910000
S      -42.50120000     -36.73820000     -70.30020000
S      -41.50890000     -35.34070000     -72.99930000
H      -42.48820000     -33.82790000     -74.75380000
