40
Properties=species:S:1:pos:R:3 #=T CELL(abcABC):=T 1.889726e+02=T 90.00000=T Traj:=T positionsangstrom=T Step:=T 0=T Bead:=T pbc="F F F"
C      -42.13840000     -35.28090000     -71.93110000
C      -43.31460000     -35.80180000     -72.50700000
C      -44.28800000     -36.43100000     -71.69860000
C      -44.11660000     -36.43560000     -70.26160000
C      -42.81020000     -36.14630000     -69.76150000
C      -41.87830000     -35.48520000     -70.56850000
H      -41.45570000     -34.84390000     -72.65780000
H      -45.22550000     -36.67500000     -72.12310000
H      -42.72930000     -36.22310000     -68.70580000
H      -40.88530000     -35.26380000     -70.16040000
C      -45.24770000     -36.94520000     -69.38090000
H      -45.04850000     -37.87010000     -68.82230000
H      -46.10090000     -37.24910000     -70.02770000
C      -43.44920000     -35.78420000     -74.04920000
H      -42.56590000     -36.31330000     -74.42780000
H      -44.30150000     -36.29370000     -74.47770000
S      -45.74870000     -35.70930000     -67.97240000
S      -43.34730000     -34.01100000     -74.74830000
C      -45.66800000     -34.03300000     -68.75900000
H      -46.16600000     -33.33910000     -68.05330000
H      -44.55880000     -33.77860000     -68.80010000
C      -44.75610000     -33.13450000     -73.98620000
H      -45.55330000     -33.90440000     -73.79680000
H      -45.22250000     -32.37850000     -74.64740000
C      -44.39700000     -32.42780000     -72.67040000
H      -44.32470000     -33.18240000     -71.91840000
H      -43.45190000     -32.01070000     -72.82890000
C      -46.31000000     -33.93200000     -70.09710000
H      -46.97520000     -34.71050000     -70.24510000
H      -45.49820000     -34.09140000     -70.83780000
C      -46.89190000     -32.56330000     -70.31430000
C      -47.95140000     -32.08590000     -69.59880000
C      -46.52000000     -31.59560000     -71.30080000
H      -48.40750000     -32.59420000     -68.69520000
C      -47.28860000     -30.41870000     -71.21150000
C      -45.47140000     -31.45270000     -72.31420000
C      -45.53850000     -30.25320000     -72.96040000
S      -48.53360000     -30.50800000     -70.05670000
S      -46.78900000     -29.18520000     -72.37720000
H      -44.85810000     -29.74220000     -73.59520000
