40
Properties=species:S:1:pos:R:3 #=T CELL(abcABC):=T 1.889726e+02=T 90.00000=T Traj:=T positionsangstrom=T Step:=T 0=T Bead:=T pbc="F F F"
C      -45.15910000     -36.27000000     -73.50500000
C      -44.98760000     -34.93510000     -73.24890000
C      -43.82730000     -34.55910000     -72.52880000
C      -42.83170000     -35.44060000     -72.17760000
C      -42.98680000     -36.77750000     -72.55750000
C      -44.17410000     -37.18670000     -73.17220000
H      -46.03160000     -36.64550000     -74.04430000
H      -43.79100000     -33.45150000     -72.29270000
H      -42.25450000     -37.54030000     -72.29160000
H      -44.33810000     -38.19650000     -73.37650000
C      -41.65420000     -35.07870000     -71.23540000
H      -40.81240000     -34.57390000     -71.71350000
H      -41.22680000     -36.03230000     -70.92680000
C      -45.90670000     -33.93820000     -73.81670000
H      -45.66210000     -32.88330000     -73.48680000
H      -45.88650000     -33.92110000     -74.92800000
S      -42.32970000     -34.27680000     -69.65820000
S      -47.74510000     -34.23750000     -73.28020000
C      -44.09940000     -34.84700000     -69.46120000
H      -44.53750000     -35.16230000     -70.40590000
H      -44.13410000     -35.71500000     -68.82710000
C      -47.56530000     -34.88620000     -71.51330000
H      -46.47160000     -35.11890000     -71.42620000
H      -48.03230000     -35.87620000     -71.33300000
C      -48.06760000     -33.87500000     -70.41030000
H      -49.17690000     -33.81780000     -70.51360000
H      -47.86060000     -34.23440000     -69.42830000
C      -45.05800000     -33.73490000     -68.79090000
H      -44.73340000     -33.48640000     -67.78630000
H      -46.01940000     -34.26340000     -68.69390000
C      -45.01100000     -32.45380000     -69.54040000
C      -44.04730000     -31.50070000     -69.46510000
C      -46.21130000     -31.95120000     -70.23070000
H      -43.08370000     -31.59520000     -68.95580000
C      -46.07580000     -30.64900000     -70.79930000
C      -47.60990000     -32.44410000     -70.49090000
C      -48.36220000     -31.49330000     -71.14250000
S      -44.41560000     -30.11050000     -70.41540000
S      -47.51710000     -29.99150000     -71.61570000
H      -49.25920000     -31.69620000     -71.74960000
