40
Properties=species:S:1:pos:R:3 #=T CELL(abcABC):=T 1.889726e+02=T 90.00000=T Traj:=T positionsangstrom=T Step:=T 0=T Bead:=T pbc="F F F"
C      -46.56910000     -30.10270000     -71.87930000
C      -47.44400000     -31.14900000     -72.08240000
C      -48.04730000     -31.76510000     -70.98230000
C      -47.52640000     -31.51680000     -69.71100000
C      -46.63250000     -30.49880000     -69.51870000
C      -46.11000000     -29.76340000     -70.60290000
H      -46.04120000     -29.72130000     -72.78280000
H      -48.82960000     -32.53020000     -71.16020000
H      -46.18400000     -30.21400000     -68.53280000
H      -45.31170000     -29.01310000     -70.54920000
C      -48.19170000     -32.32440000     -68.51800000
H      -49.00760000     -32.93610000     -68.89310000
H      -48.63800000     -31.63140000     -67.73130000
C      -48.11390000     -31.38410000     -73.36490000
H      -48.92020000     -32.04080000     -73.41590000
H      -48.46750000     -30.45180000     -73.73360000
S      -46.96410000     -33.28270000     -67.64470000
S      -46.97000000     -32.19620000     -74.70220000
C      -46.45420000     -34.46640000     -68.91930000
H      -46.00300000     -35.39980000     -68.45870000
H      -47.36360000     -34.87930000     -69.45720000
C      -45.91170000     -33.31650000     -73.66570000
H      -45.54480000     -34.06750000     -74.36810000
H      -46.56700000     -33.81590000     -73.02350000
C      -44.74640000     -32.64470000     -72.93370000
H      -44.32500000     -31.83970000     -73.45620000
H      -45.16680000     -32.28060000     -71.93670000
C      -45.48490000     -33.91020000     -69.90030000
H      -45.07750000     -32.98810000     -69.64410000
H      -45.93280000     -33.69790000     -70.87340000
C      -44.36020000     -34.83050000     -70.35900000
C      -43.90050000     -35.86530000     -69.61820000
C      -43.67270000     -34.59080000     -71.59440000
H      -44.07180000     -36.25300000     -68.62350000
C      -42.69830000     -35.59510000     -71.71710000
C      -43.63550000     -33.62160000     -72.68650000
C      -42.55670000     -33.84890000     -73.44980000
S      -42.56810000     -36.79190000     -70.46850000
S      -41.70880000     -35.31610000     -73.15890000
H      -42.30310000     -33.23970000     -74.35460000
