40
Properties=species:S:1:pos:R:3 #=T CELL(abcABC):=T 1.889726e+02=T 90.00000=T Traj:=T positionsangstrom=T Step:=T 0=T Bead:=T pbc="F F F"
C      -46.48130000     -30.05180000     -71.88030000
C      -47.47700000     -30.94330000     -72.13040000
C      -48.07570000     -31.69140000     -71.08020000
C      -47.60900000     -31.48950000     -69.79020000
C      -46.65570000     -30.47180000     -69.60300000
C      -46.11870000     -29.69250000     -70.57910000
H      -46.09880000     -29.42290000     -72.71270000
H      -48.89260000     -32.33050000     -71.40880000
H      -46.30420000     -30.32550000     -68.52900000
H      -45.54120000     -28.78770000     -70.32320000
C      -48.24390000     -32.20740000     -68.59570000
H      -48.90000000     -32.90750000     -69.00480000
H      -48.73210000     -31.52420000     -67.89450000
C      -47.89480000     -31.19100000     -73.52380000
H      -48.92230000     -31.60020000     -73.45110000
H      -47.87760000     -30.12560000     -73.94680000
S      -47.10880000     -33.14960000     -67.51800000
S      -46.85500000     -32.24750000     -74.68580000
C      -46.33290000     -34.42210000     -68.59730000
H      -45.73640000     -34.89220000     -67.86070000
H      -47.11090000     -35.08660000     -68.94290000
C      -45.95750000     -33.35950000     -73.47260000
H      -45.72510000     -34.23670000     -74.06880000
H      -46.78670000     -33.58300000     -72.76170000
C      -44.70410000     -32.71900000     -72.86870000
H      -44.44550000     -31.94460000     -73.55020000
H      -44.97420000     -32.17330000     -71.94250000
C      -45.40540000     -33.92350000     -69.70190000
H      -44.88150000     -33.05150000     -69.26890000
H      -46.08990000     -33.41790000     -70.43760000
C      -44.44090000     -34.99040000     -70.35720000
C      -44.05470000     -36.16370000     -69.76350000
C      -43.59200000     -34.65620000     -71.53220000
H      -44.50390000     -36.69940000     -68.89600000
C      -42.48740000     -35.51230000     -71.67470000
C      -43.64390000     -33.77910000     -72.69810000
C      -42.78300000     -34.03870000     -73.71230000
S      -42.62390000     -36.87780000     -70.59260000
S      -41.64740000     -35.31810000     -73.20110000
H      -42.63380000     -33.39830000     -74.56650000
