40
Properties=species:S:1:pos:R:3 #=T CELL(abcABC):=T 1.889726e+02=T 90.00000=T Traj:=T positionsangstrom=T Step:=T 0=T Bead:=T pbc="F F F"
C      -42.07780000     -35.23420000     -71.79880000
C      -43.25860000     -35.63810000     -72.41330000
C      -44.28100000     -36.14230000     -71.62070000
C      -44.06870000     -36.36140000     -70.27470000
C      -42.93030000     -35.92670000     -69.62150000
C      -41.91730000     -35.33590000     -70.43390000
H      -41.30710000     -34.79620000     -72.41130000
H      -45.15720000     -36.55190000     -72.09200000
H      -42.74080000     -36.15530000     -68.55160000
H      -41.01310000     -34.94830000     -69.93260000
C      -45.15240000     -37.00010000     -69.48180000
H      -44.79560000     -37.89390000     -68.93880000
H      -45.99450000     -37.27240000     -70.08260000
C      -43.47650000     -35.59850000     -73.90890000
H      -42.89870000     -36.44970000     -74.44020000
H      -44.51080000     -35.84630000     -74.06340000
S      -45.67690000     -35.94580000     -68.12090000
S      -43.26700000     -34.01290000     -74.76270000
C      -45.68410000     -34.22860000     -68.84260000
H      -46.15050000     -33.62330000     -68.11800000
H      -44.70040000     -33.81040000     -69.03610000
C      -44.68410000     -33.05590000     -73.99010000
H      -45.59370000     -33.64740000     -74.14170000
H      -44.67460000     -32.28910000     -74.70370000
C      -44.41500000     -32.51720000     -72.62390000
H      -44.31580000     -33.31440000     -71.81000000
H      -43.43310000     -31.98390000     -72.50540000
C      -46.49160000     -34.04740000     -70.17200000
H      -47.40010000     -34.66640000     -70.06120000
H      -46.09990000     -34.39340000     -71.08240000
C      -47.03080000     -32.62580000     -70.39290000
C      -48.02600000     -32.13250000     -69.62610000
C      -46.56170000     -31.60760000     -71.28920000
H      -48.53140000     -32.65540000     -68.82570000
C      -47.32930000     -30.44990000     -71.28360000
C      -45.48640000     -31.48400000     -72.29280000
C      -45.50420000     -30.25150000     -72.90210000
S      -48.46760000     -30.45770000     -70.02830000
S      -46.85390000     -29.21710000     -72.40320000
H      -44.84310000     -29.95090000     -73.70990000
