40
Properties=species:S:1:pos:R:3 #=T CELL(abcABC):=T 1.889726e+02=T 90.00000=T Traj:=T positionsangstrom=T Step:=T 0=T Bead:=T pbc="F F F"
C      -47.23360000     -30.28400000     -72.21860000
C      -48.07460000     -31.41240000     -72.23920000
C      -48.09120000     -32.21990000     -71.08880000
C      -47.51630000     -31.85120000     -69.87240000
C      -46.71630000     -30.71070000     -69.85080000
C      -46.56680000     -29.93050000     -71.04590000
H      -47.02290000     -29.70790000     -73.14540000
H      -48.73490000     -33.09970000     -71.15940000
H      -46.31340000     -30.26930000     -68.93300000
H      -46.02700000     -29.07080000     -71.03090000
C      -47.87720000     -32.64340000     -68.59520000
H      -48.82050000     -33.14090000     -68.84260000
H      -47.91930000     -32.07630000     -67.66630000
C      -48.55110000     -31.95900000     -73.54820000
H      -49.23730000     -32.80280000     -73.45860000
H      -49.14150000     -31.13150000     -74.05020000
S      -46.56200000     -33.99000000     -68.27790000
S      -47.05410000     -32.30600000     -74.67890000
C      -46.84120000     -35.35170000     -69.53990000
H      -46.68070000     -36.31710000     -69.06900000
H      -47.88820000     -35.23800000     -69.83200000
C      -45.96640000     -33.46330000     -73.76140000
H      -45.44190000     -34.07440000     -74.47670000
H      -46.64040000     -34.20700000     -73.24280000
C      -45.02170000     -32.70860000     -72.84850000
H      -44.78010000     -31.70610000     -73.12800000
H      -45.54610000     -32.48970000     -71.91890000
C      -46.02570000     -35.28200000     -70.87920000
H      -46.26890000     -34.27910000     -71.37080000
H      -46.35120000     -36.17220000     -71.42580000
C      -44.56330000     -35.35840000     -70.73700000
C      -43.81950000     -36.23420000     -69.88910000
C      -43.67060000     -34.51160000     -71.51680000
H      -44.26150000     -36.98150000     -69.25410000
C      -42.28060000     -34.83070000     -71.26250000
C      -43.77600000     -33.35480000     -72.43560000
C      -42.51500000     -32.79230000     -72.64440000
S      -42.06420000     -36.05580000     -70.06110000
S      -41.20790000     -33.60780000     -71.90010000
H      -42.39730000     -31.86440000     -73.16350000
