40
Properties=species:S:1:pos:R:3 #=T CELL(abcABC):=T 1.889726e+02=T 90.00000=T Traj:=T positionsangstrom=T Step:=T 0=T Bead:=T pbc="F F F"
C      -44.83100000     -30.03350000     -69.09360000
C      -45.71710000     -30.20370000     -70.13650000
C      -46.72770000     -31.14920000     -69.92580000
C      -46.90800000     -31.82350000     -68.70250000
C      -46.05930000     -31.47350000     -67.62660000
C      -44.97660000     -30.60000000     -67.84850000
H      -44.11250000     -29.19680000     -69.09640000
H      -47.47720000     -31.39300000     -70.67130000
H      -46.24330000     -31.93370000     -66.63720000
H      -44.29840000     -30.33020000     -66.98800000
C      -48.11090000     -32.74850000     -68.59020000
H      -48.57740000     -32.74830000     -69.55820000
H      -48.80850000     -32.56280000     -67.78960000
C      -45.52960000     -29.48930000     -71.43810000
H      -46.47640000     -28.94470000     -71.68210000
H      -44.68570000     -28.82070000     -71.36470000
S      -47.58630000     -34.54450000     -68.21990000
S      -45.28520000     -30.73950000     -72.74870000
C      -46.28350000     -34.94250000     -69.52510000
H      -45.31950000     -34.42240000     -69.32370000
H      -45.96890000     -35.99390000     -69.42780000
C      -43.60500000     -31.26190000     -72.46470000
H      -43.04410000     -30.55870000     -71.72970000
H      -42.97170000     -31.38920000     -73.29930000
C      -43.62720000     -32.61360000     -71.57680000
H      -42.82180000     -32.40980000     -70.88590000
H      -44.51890000     -32.62760000     -70.90110000
C      -46.68620000     -34.61860000     -70.89620000
H      -46.71200000     -33.51250000     -71.06240000
H      -47.74190000     -34.86030000     -71.06790000
C      -45.84210000     -35.28380000     -71.92430000
C      -46.30500000     -36.44260000     -72.50620000
C      -44.63090000     -34.90740000     -72.57810000
H      -47.21650000     -37.00120000     -72.26430000
C      -44.32380000     -35.66780000     -73.71830000
C      -43.55860000     -33.88820000     -72.35750000
C      -42.46310000     -34.18690000     -73.14480000
S      -45.37030000     -36.98320000     -73.87530000
S      -42.64570000     -35.41570000     -74.35980000
H      -41.55850000     -33.56440000     -73.28080000
