40
Properties=species:S:1:pos:R:3 #=T CELL(abcABC):=T 1.889726e+02=T 90.00000=T Traj:=T positionsangstrom=T Step:=T 0=T Bead:=T pbc="F F F"
C      -47.00060000     -30.10480000     -71.95330000
C      -47.79600000     -31.24800000     -72.13730000
C      -48.12260000     -32.11590000     -71.04060000
C      -47.55050000     -31.89830000     -69.81760000
C      -46.69000000     -30.81660000     -69.69630000
C      -46.41750000     -29.93390000     -70.67140000
H      -46.73950000     -29.50610000     -72.86830000
H      -48.77350000     -32.96770000     -71.26070000
H      -46.18610000     -30.81060000     -68.75960000
H      -45.62540000     -29.18640000     -70.64480000
C      -47.81450000     -32.86700000     -68.72150000
H      -48.66360000     -33.60760000     -68.98220000
H      -48.12620000     -32.23380000     -67.86330000
C      -48.43330000     -31.55270000     -73.51010000
H      -49.25020000     -32.37640000     -73.43900000
H      -48.85670000     -30.72960000     -74.07090000
S      -46.38600000     -33.83070000     -68.24140000
S      -47.19620000     -32.19110000     -74.75110000
C      -46.76630000     -35.37770000     -69.24490000
H      -46.34440000     -36.14770000     -68.60200000
H      -47.86230000     -35.46020000     -69.32390000
C      -45.96430000     -33.30890000     -73.86490000
H      -45.25190000     -33.54990000     -74.68610000
H      -46.37090000     -34.30170000     -73.58850000
C      -45.13960000     -32.66750000     -72.72100000
H      -44.85390000     -31.64220000     -72.99850000
H      -45.72690000     -32.63770000     -71.83760000
C      -46.12050000     -35.25620000     -70.63980000
H      -46.63260000     -34.50660000     -71.15570000
H      -46.27420000     -36.18190000     -71.20580000
C      -44.61820000     -35.17830000     -70.60410000
C      -43.95200000     -36.04480000     -69.79890000
C      -43.67180000     -34.56180000     -71.56940000
H      -44.44120000     -36.59270000     -68.92470000
C      -42.39400000     -34.96660000     -71.36590000
C      -43.81760000     -33.38510000     -72.40570000
C      -42.59970000     -33.08430000     -72.94270000
S      -42.16290000     -36.06360000     -70.04030000
S      -41.26780000     -34.07040000     -72.40360000
H      -42.36630000     -32.26800000     -73.57330000
