40
Properties=species:S:1:pos:R:3 #=T CELL(abcABC):=T 1.889726e+02=T 90.00000=T Traj:=T positionsangstrom=T Step:=T 0=T Bead:=T pbc="F F F"
C      -47.53730000     -30.31690000     -72.10020000
C      -47.89070000     -31.70040000     -72.26670000
C      -48.16130000     -32.44090000     -71.11110000
C      -47.81200000     -32.05360000     -69.76390000
C      -47.52220000     -30.71700000     -69.65440000
C      -47.51490000     -29.87900000     -70.80140000
H      -47.15420000     -29.62730000     -72.92110000
H      -48.40730000     -33.56250000     -71.17730000
H      -47.42170000     -30.30640000     -68.65860000
H      -47.40990000     -28.74290000     -70.64830000
C      -47.92540000     -32.94660000     -68.61890000
H      -48.75080000     -33.66020000     -68.66520000
H      -48.06850000     -32.35670000     -67.64180000
C      -48.16580000     -32.32480000     -73.62250000
H      -48.67440000     -33.28790000     -73.49390000
H      -48.89880000     -31.59970000     -74.13300000
S      -46.38820000     -33.88400000     -68.37230000
S      -46.81920000     -32.48570000     -74.82210000
C      -46.72430000     -35.30410000     -69.53310000
H      -46.38600000     -36.21430000     -69.01110000
H      -47.79880000     -35.34490000     -69.50030000
C      -45.37070000     -33.25630000     -73.98820000
H      -44.65780000     -33.45510000     -74.80070000
H      -45.65960000     -34.27320000     -73.66640000
C      -44.73590000     -32.45000000     -72.91100000
H      -44.43720000     -31.52400000     -73.29780000
H      -45.48090000     -32.18330000     -72.11280000
C      -46.10660000     -35.22790000     -70.96270000
H      -46.43810000     -34.31550000     -71.38300000
H      -46.51180000     -36.04480000     -71.67410000
C      -44.65260000     -35.24540000     -70.90590000
C      -43.95650000     -36.30010000     -70.33220000
C      -43.64650000     -34.18420000     -71.32990000
H      -44.44640000     -37.22590000     -69.99710000
C      -42.41330000     -34.52320000     -70.93090000
C      -43.57760000     -33.12230000     -72.30310000
C      -42.30280000     -32.68810000     -72.62350000
S      -42.23860000     -36.04150000     -70.08970000
S      -41.12730000     -33.59600000     -71.68150000
H      -42.05400000     -31.98350000     -73.41780000
