40
Properties=species:S:1:pos:R:3 #=T CELL(abcABC):=T 1.889726e+02=T 90.00000=T Traj:=T positionsangstrom=T Step:=T 0=T Bead:=T pbc="F F F"
C      -44.92690000     -29.97110000     -68.96810000
C      -45.68280000     -30.24110000     -70.07820000
C      -46.70710000     -31.14980000     -69.86000000
C      -46.90670000     -31.89450000     -68.72760000
C      -46.01140000     -31.73410000     -67.67070000
C      -45.14550000     -30.63820000     -67.74110000
H      -44.11910000     -29.29650000     -68.99530000
H      -47.41150000     -31.27420000     -70.66030000
H      -45.97760000     -32.32870000     -66.78820000
H      -44.57300000     -30.40870000     -66.78290000
C      -48.05250000     -32.87060000     -68.51210000
H      -48.83870000     -32.65040000     -69.26180000
H      -48.61870000     -32.63600000     -67.55640000
C      -45.64480000     -29.57210000     -71.46840000
H      -46.65650000     -29.25910000     -71.69630000
H      -45.00480000     -28.71770000     -71.37220000
S      -47.71330000     -34.67430000     -68.37810000
S      -45.13540000     -30.75090000     -72.81390000
C      -46.34610000     -34.87500000     -69.54590000
H      -45.44250000     -34.49280000     -69.09740000
H      -46.19820000     -35.96610000     -69.54760000
C      -43.46290000     -31.28690000     -72.17260000
H      -43.14810000     -30.49520000     -71.38980000
H      -42.71920000     -31.25500000     -72.93050000
C      -43.51830000     -32.61330000     -71.50440000
H      -42.68190000     -32.71760000     -70.81840000
H      -44.44110000     -32.73930000     -70.82500000
C      -46.58630000     -34.29790000     -70.95190000
H      -46.34400000     -33.29140000     -70.95420000
H      -47.66360000     -34.37640000     -71.22200000
C      -45.85740000     -35.12530000     -72.01010000
C      -46.49050000     -36.20480000     -72.61030000
C      -44.52600000     -34.93990000     -72.54070000
H      -47.42030000     -36.71570000     -72.36250000
C      -44.15250000     -35.83050000     -73.49570000
C      -43.56060000     -33.82610000     -72.49170000
C      -42.52990000     -33.98470000     -73.38480000
S      -45.44220000     -36.91820000     -73.84320000
S      -42.61270000     -35.45590000     -74.32580000
H      -41.70500000     -33.26900000     -73.56980000
