40
Properties=species:S:1:pos:R:3 #=T CELL(abcABC):=T 1.889726e+02=T 90.00000=T Traj:=T positionsangstrom=T Step:=T 0=T Bead:=T pbc="F F F"
C      -44.97700000     -29.72290000     -69.08370000
C      -45.89820000     -29.97870000     -70.09270000
C      -46.74900000     -31.09650000     -69.95340000
C      -46.73500000     -31.89670000     -68.77720000
C      -45.70890000     -31.61480000     -67.81960000
C      -44.88350000     -30.50150000     -67.93580000
H      -44.36230000     -28.86700000     -69.13710000
H      -47.54000000     -31.16730000     -70.64170000
H      -45.68500000     -32.10170000     -66.83940000
H      -44.24440000     -30.18840000     -67.08610000
C      -47.81670000     -32.82460000     -68.45470000
H      -48.56870000     -32.99980000     -69.22840000
H      -48.28850000     -32.50770000     -67.52990000
C      -46.08120000     -29.24680000     -71.37270000
H      -47.20640000     -29.21970000     -71.63250000
H      -45.66090000     -28.18610000     -71.37990000
S      -47.08410000     -34.53320000     -68.28680000
S      -45.53260000     -30.34730000     -72.83070000
C      -46.01760000     -34.65310000     -69.75350000
H      -45.22960000     -33.88010000     -69.93210000
H      -45.50210000     -35.65420000     -69.68010000
C      -43.91060000     -31.27370000     -72.48860000
H      -43.29670000     -30.59110000     -71.92370000
H      -43.51330000     -31.37660000     -73.46710000
C      -44.08440000     -32.57920000     -71.70560000
H      -43.41010000     -32.59920000     -70.82870000
H      -45.10270000     -32.68930000     -71.33090000
C      -46.80300000     -34.60790000     -71.11840000
H      -46.96600000     -33.55000000     -71.35670000
H      -47.85750000     -35.00140000     -71.07440000
C      -46.06970000     -35.41540000     -72.17650000
C      -46.44530000     -36.62350000     -72.63890000
C      -44.76520000     -34.97650000     -72.78290000
H      -47.41140000     -37.07370000     -72.36440000
C      -44.12240000     -36.00360000     -73.47280000
C      -43.82310000     -33.84520000     -72.51410000
C      -42.64610000     -34.05810000     -73.10590000
S      -45.10930000     -37.48830000     -73.55730000
S      -42.55880000     -35.50690000     -74.03700000
H      -41.78100000     -33.43880000     -73.02580000
