40
Properties=species:S:1:pos:R:3 #=T CELL(abcABC):=T 1.889726e+02=T 90.00000=T Traj:=T positionsangstrom=T Step:=T 0=T Bead:=T pbc="F F F"
C      -44.87710000     -29.95840000     -69.46080000
C      -45.94130000     -30.35110000     -70.30270000
C      -46.86140000     -31.29490000     -69.85420000
C      -46.82750000     -31.91750000     -68.59630000
C      -45.77810000     -31.44500000     -67.78220000
C      -44.79580000     -30.55600000     -68.22300000
H      -44.21280000     -29.15810000     -69.85210000
H      -47.67130000     -31.57280000     -70.52900000
H      -45.74630000     -31.75700000     -66.70270000
H      -43.99950000     -30.29270000     -67.50600000
C      -47.92720000     -32.85460000     -68.25860000
H      -48.64730000     -32.80320000     -69.08100000
H      -48.32800000     -32.76500000     -67.24740000
C      -46.23530000     -29.58510000     -71.58430000
H      -47.37600000     -29.61890000     -71.63140000
H      -45.72910000     -28.59410000     -71.48430000
S      -47.29690000     -34.62900000     -68.07130000
S      -45.75480000     -30.21130000     -73.20250000
C      -46.11690000     -35.10150000     -69.54010000
H      -45.13000000     -34.62140000     -69.38100000
H      -45.80050000     -36.13940000     -69.36800000
C      -44.24960000     -31.17470000     -72.75280000
H      -43.49520000     -30.51310000     -72.30660000
H      -43.88280000     -31.41880000     -73.75580000
C      -44.42570000     -32.44350000     -71.89300000
H      -43.80310000     -32.36690000     -71.02010000
H      -45.41770000     -32.67150000     -71.56310000
C      -46.66740000     -34.86130000     -70.94680000
H      -46.84410000     -33.77580000     -71.11180000
H      -47.66920000     -35.21990000     -70.97250000
C      -45.82290000     -35.45910000     -72.00000000
C      -46.07930000     -36.74200000     -72.46400000
C      -44.57450000     -34.89300000     -72.53890000
H      -47.01390000     -37.26720000     -72.17660000
C      -43.85010000     -35.85290000     -73.25190000
C      -43.87020000     -33.65000000     -72.55140000
C      -42.70250000     -33.68840000     -73.31020000
S      -44.77520000     -37.31070000     -73.54950000
S      -42.39730000     -35.31290000     -73.84330000
H      -41.99860000     -32.79060000     -73.43990000
