40
Properties=species:S:1:pos:R:3 #=T CELL(abcABC):=T 1.889726e+02=T 90.00000=T Traj:=T positionsangstrom=T Step:=T 0=T Bead:=T pbc="F F F"
C      -42.09840000     -35.13270000     -71.84920000
C      -43.25460000     -35.66870000     -72.43400000
C      -44.19900000     -36.34220000     -71.62580000
C      -44.02570000     -36.37970000     -70.26410000
C      -42.83900000     -35.89290000     -69.64600000
C      -41.88820000     -35.22910000     -70.44060000
H      -41.32190000     -34.56620000     -72.36530000
H      -45.17170000     -36.70580000     -71.99970000
H      -42.76570000     -35.83510000     -68.54070000
H      -41.01830000     -34.75750000     -69.96000000
C      -44.98600000     -37.08360000     -69.34300000
H      -44.43360000     -37.75110000     -68.70030000
H      -45.71840000     -37.72390000     -69.90130000
C      -43.37580000     -35.62910000     -73.99340000
H      -42.59150000     -36.17110000     -74.45580000
H      -44.29840000     -36.01040000     -74.41790000
S      -45.96580000     -35.92160000     -68.17530000
S      -43.05900000     -33.93570000     -74.71810000
C      -45.74520000     -34.23220000     -68.88940000
H      -46.03820000     -33.49230000     -68.08150000
H      -44.66040000     -34.11870000     -69.07170000
C      -44.48300000     -32.89140000     -74.21980000
H      -45.44420000     -33.40230000     -74.30810000
H      -44.50970000     -31.95370000     -74.80930000
C      -44.44850000     -32.54610000     -72.68570000
H      -44.47060000     -33.50860000     -72.20910000
H      -43.43980000     -32.15420000     -72.50310000
C      -46.67980000     -34.04620000     -70.14570000
H      -47.65720000     -34.62120000     -69.93950000
H      -46.16980000     -34.46100000     -70.96290000
C      -47.02480000     -32.59640000     -70.35010000
C      -48.09740000     -32.17520000     -69.62270000
C      -46.52650000     -31.60740000     -71.20880000
H      -48.77550000     -32.79000000     -69.08470000
C      -47.21810000     -30.39110000     -71.13160000
C      -45.51750000     -31.52630000     -72.22610000
C      -45.56940000     -30.31040000     -72.89800000
S      -48.59340000     -30.51990000     -70.03530000
S      -46.81840000     -29.24120000     -72.36440000
H      -44.97740000     -30.19230000     -73.83100000
