40
Properties=species:S:1:pos:R:3 #=T CELL(abcABC):=T 1.889726e+02=T 90.00000=T Traj:=T positionsangstrom=T Step:=T 0=T Bead:=T pbc="F F F"
C      -45.11130000     -29.68410000     -69.40810000
C      -46.14120000     -30.01670000     -70.30620000
C      -47.02160000     -31.04460000     -69.88300000
C      -46.77520000     -31.80290000     -68.75110000
C      -45.66230000     -31.58880000     -67.93900000
C      -44.77730000     -30.57050000     -68.29090000
H      -44.45330000     -28.86130000     -69.56610000
H      -47.81230000     -31.40250000     -70.55700000
H      -45.44890000     -32.21190000     -67.08680000
H      -43.92390000     -30.24340000     -67.77540000
C      -47.68570000     -32.96930000     -68.42730000
H      -48.37260000     -33.12910000     -69.28010000
H      -48.17010000     -32.65400000     -67.45210000
C      -46.44240000     -29.26030000     -71.61080000
H      -47.45250000     -28.92080000     -71.67520000
H      -45.76880000     -28.45350000     -71.73760000
S      -46.94030000     -34.65680000     -68.06390000
S      -46.40950000     -30.38130000     -73.13330000
C      -46.01190000     -35.19850000     -69.47490000
H      -45.08020000     -34.67810000     -69.52320000
H      -45.66930000     -36.20950000     -69.21860000
C      -44.75000000     -31.13510000     -73.06420000
H      -43.86800000     -30.51840000     -72.92090000
H      -44.53190000     -31.59560000     -74.00180000
C      -44.64840000     -32.29510000     -72.03620000
H      -44.08860000     -31.95020000     -71.13980000
H      -45.65160000     -32.67040000     -71.64960000
C      -46.65870000     -35.16280000     -70.82540000
H      -46.80870000     -34.06570000     -71.10900000
H      -47.57640000     -35.76600000     -70.94700000
C      -45.62300000     -35.71870000     -71.84790000
C      -45.50240000     -37.07310000     -72.05260000
C      -44.54810000     -35.00180000     -72.51890000
H      -46.32500000     -37.71900000     -71.83640000
C      -43.77120000     -35.85180000     -73.27330000
C      -44.04540000     -33.61920000     -72.52850000
C      -42.86030000     -33.53890000     -73.25230000
S      -44.27780000     -37.50180000     -73.28490000
S      -42.41830000     -35.02260000     -74.05650000
H      -42.27180000     -32.69410000     -73.58930000
