40
Properties=species:S:1:pos:R:3 #=T CELL(abcABC):=T 1.889726e+02=T 90.00000=T Traj:=T positionsangstrom=T Step:=T 0=T Bead:=T pbc="F F F"
C      -45.08480000     -29.76440000     -69.44890000
C      -46.16610000     -30.15650000     -70.27950000
C      -46.95770000     -31.25410000     -69.94100000
C      -46.79750000     -31.86840000     -68.65640000
C      -45.80670000     -31.46630000     -67.82900000
C      -44.95020000     -30.43250000     -68.21150000
H      -44.38600000     -28.92960000     -69.74020000
H      -47.83510000     -31.45130000     -70.52500000
H      -45.56900000     -32.07860000     -66.90250000
H      -44.18080000     -30.11040000     -67.53630000
C      -47.66620000     -32.98370000     -68.23530000
H      -48.54180000     -33.06790000     -68.90300000
H      -48.04870000     -32.65960000     -67.30310000
C      -46.54720000     -29.28690000     -71.50520000
H      -47.62890000     -28.95410000     -71.47540000
H      -45.92750000     -28.33160000     -71.56280000
S      -47.00230000     -34.72550000     -68.06490000
S      -46.41550000     -30.20220000     -73.07740000
C      -45.75110000     -34.79980000     -69.47250000
H      -45.29780000     -33.78060000     -69.60280000
H      -44.96050000     -35.48760000     -69.17350000
C      -44.97110000     -31.35630000     -73.17690000
H      -44.03680000     -30.77160000     -73.17630000
H      -45.10860000     -31.71980000     -74.23500000
C      -44.88330000     -32.48970000     -72.16420000
H      -44.37890000     -32.18090000     -71.28970000
H      -45.93120000     -32.77750000     -71.94730000
C      -46.52070000     -35.19820000     -70.77010000
H      -47.19520000     -34.34450000     -71.01200000
H      -47.18770000     -35.94580000     -70.48160000
C      -45.59310000     -35.68240000     -71.87570000
C      -45.52730000     -37.00730000     -72.18550000
C      -44.46190000     -35.02210000     -72.57210000
H      -46.24320000     -37.71430000     -71.76890000
C      -43.66270000     -35.87910000     -73.27430000
C      -44.12830000     -33.59930000     -72.75170000
C      -42.95860000     -33.44630000     -73.50790000
S      -44.14900000     -37.55060000     -73.16350000
S      -42.27960000     -35.05180000     -74.12000000
H      -42.41890000     -32.55640000     -73.64470000
