40
Properties=species:S:1:pos:R:3 #=T CELL(abcABC):=T 1.889726e+02=T 90.00000=T Traj:=T positionsangstrom=T Step:=T 0=T Bead:=T pbc="F F F"
C      -45.01970000     -29.90610000     -69.55940000
C      -46.16530000     -30.15730000     -70.34260000
C      -47.13010000     -31.09830000     -69.89130000
C      -46.91470000     -31.87430000     -68.78630000
C      -45.71400000     -31.67990000     -68.10820000
C      -44.80270000     -30.70650000     -68.44690000
H      -44.21780000     -29.15670000     -69.87490000
H      -48.10490000     -31.21270000     -70.41530000
H      -45.57780000     -32.36680000     -67.33030000
H      -43.92960000     -30.57460000     -67.78500000
C      -47.84120000     -32.89730000     -68.15800000
H      -48.78370000     -32.87600000     -68.72380000
H      -48.18900000     -32.60090000     -67.14680000
C      -46.37330000     -29.36510000     -71.58830000
H      -47.42230000     -29.18470000     -71.70200000
H      -45.84950000     -28.44080000     -71.48530000
S      -47.20680000     -34.64040000     -68.02140000
S      -45.91380000     -30.30900000     -73.11590000
C      -46.02610000     -34.80320000     -69.45410000
H      -45.25800000     -33.96930000     -69.40450000
H      -45.56920000     -35.77650000     -69.36090000
C      -44.31230000     -31.20210000     -72.88570000
H      -43.57100000     -30.52790000     -72.44840000
H      -44.00770000     -31.54000000     -73.88210000
C      -44.35660000     -32.43690000     -71.90720000
H      -43.84090000     -32.14340000     -70.94160000
H      -45.35790000     -32.56090000     -71.58590000
C      -46.63520000     -34.82740000     -70.88830000
H      -46.86900000     -33.89410000     -71.43680000
H      -47.60990000     -35.42580000     -70.92900000
C      -45.69860000     -35.52540000     -71.96400000
C      -45.91230000     -36.86230000     -72.31270000
C      -44.49550000     -34.91650000     -72.55080000
H      -46.82580000     -37.44590000     -72.13510000
C      -43.83900000     -35.85710000     -73.29360000
C      -43.79550000     -33.67810000     -72.45170000
C      -42.55000000     -33.74600000     -73.03920000
S      -44.68290000     -37.44980000     -73.42670000
S      -42.42820000     -35.19700000     -73.96160000
H      -41.79050000     -32.88280000     -73.25400000
