40
Properties=species:S:1:pos:R:3 #=T CELL(abcABC):=T 1.889726e+02=T 90.00000=T Traj:=T positionsangstrom=T Step:=T 0=T Bead:=T pbc="F F F"
C      -44.99360000     -29.79100000     -69.27310000
C      -45.94880000     -30.17220000     -70.19550000
C      -46.81000000     -31.22150000     -69.85640000
C      -46.72460000     -31.90210000     -68.61650000
C      -45.71200000     -31.47160000     -67.74880000
C      -44.85660000     -30.44300000     -68.05860000
H      -44.37520000     -28.98520000     -69.60220000
H      -47.45580000     -31.52490000     -70.64540000
H      -45.54020000     -31.97390000     -66.72100000
H      -44.08280000     -30.22580000     -67.31040000
C      -47.80670000     -32.96450000     -68.26250000
H      -48.66380000     -32.82780000     -68.95050000
H      -48.22540000     -32.73700000     -67.27610000
C      -45.97690000     -29.37730000     -71.46040000
H      -46.75080000     -28.69790000     -71.61030000
H      -45.17300000     -28.70090000     -71.41240000
S      -47.27620000     -34.79310000     -68.21970000
S      -45.60370000     -30.25920000     -73.10680000
C      -46.19950000     -34.96490000     -69.74460000
H      -45.35900000     -34.34130000     -69.59760000
H      -45.98410000     -36.02030000     -69.56960000
C      -44.01190000     -31.12760000     -72.65930000
H      -43.32750000     -30.45250000     -72.10550000
H      -43.42720000     -31.38130000     -73.57180000
C      -44.25360000     -32.42910000     -71.88170000
H      -43.71750000     -32.33490000     -70.93290000
H      -45.35130000     -32.47590000     -71.62710000
C      -46.88090000     -34.75940000     -71.09740000
H      -46.92610000     -33.64140000     -71.21500000
H      -47.81860000     -35.22290000     -71.15420000
C      -45.93430000     -35.38550000     -72.17560000
C      -46.20680000     -36.71150000     -72.47490000
C      -44.63560000     -34.90000000     -72.57120000
H      -46.97830000     -37.39220000     -72.08560000
C      -43.97390000     -35.89680000     -73.29180000
C      -43.83000000     -33.71570000     -72.56220000
C      -42.61230000     -33.79080000     -73.14940000
S      -44.99960000     -37.37970000     -73.50840000
S      -42.48980000     -35.37610000     -73.93560000
H      -41.79240000     -33.04560000     -73.19440000
