40
Properties=species:S:1:pos:R:3 #=T CELL(abcABC):=T 1.889726e+02=T 90.00000=T Traj:=T positionsangstrom=T Step:=T 0=T Bead:=T pbc="F F F"
C      -45.09910000     -29.76250000     -69.04180000
C      -46.04990000     -30.11570000     -70.02260000
C      -46.83850000     -31.28010000     -69.75350000
C      -46.76180000     -32.05930000     -68.60030000
C      -45.71030000     -31.75060000     -67.72110000
C      -44.94720000     -30.58960000     -67.91960000
H      -44.46440000     -28.84980000     -69.19520000
H      -47.70430000     -31.48380000     -70.38410000
H      -45.46830000     -32.34410000     -66.89010000
H      -43.99930000     -30.43700000     -67.36330000
C      -47.72580000     -33.13210000     -68.31610000
H      -48.28580000     -33.32440000     -69.14880000
H      -48.24450000     -33.02010000     -67.37190000
C      -46.04790000     -29.29340000     -71.21060000
H      -46.74140000     -28.45500000     -71.07340000
H      -45.03940000     -28.89600000     -71.34380000
S      -46.85210000     -34.82180000     -68.06240000
S      -46.69540000     -30.14580000     -72.71120000
C      -45.68050000     -34.80880000     -69.60760000
H      -45.17320000     -33.81470000     -69.64200000
H      -44.83890000     -35.33100000     -69.10230000
C      -45.48490000     -31.34480000     -73.27820000
H      -44.55580000     -30.76980000     -73.37760000
H      -45.81290000     -31.55200000     -74.29610000
C      -45.37020000     -32.60050000     -72.47240000
H      -45.07940000     -32.29340000     -71.43500000
H      -46.43300000     -32.90800000     -72.32600000
C      -46.33450000     -35.38980000     -70.80710000
H      -46.94230000     -34.65340000     -71.20640000
H      -46.76730000     -36.31600000     -70.51090000
C      -45.36210000     -35.77040000     -71.89060000
C      -45.03020000     -37.11610000     -72.03170000
C      -44.50590000     -34.97040000     -72.72660000
H      -45.43310000     -37.96680000     -71.51090000
C      -43.57090000     -35.73460000     -73.39870000
C      -44.44800000     -33.59610000     -73.08830000
C      -43.43970000     -33.27300000     -74.01280000
S      -43.69780000     -37.38320000     -73.13910000
S      -42.63710000     -34.78780000     -74.49700000
H      -43.07540000     -32.23730000     -74.11570000
