40
Properties=species:S:1:pos:R:3 #=T CELL(abcABC):=T 1.889726e+02=T 90.00000=T Traj:=T positionsangstrom=T Step:=T 0=T Bead:=T pbc="F F F"
C      -43.83430000     -31.94650000     -67.20120000
C      -43.41230000     -32.65860000     -68.32050000
C      -43.30130000     -31.99650000     -69.53420000
C      -43.71790000     -30.69880000     -69.73910000
C      -44.29090000     -30.05890000     -68.63470000
C      -44.31950000     -30.65510000     -67.38380000
H      -43.84090000     -32.35820000     -66.17850000
H      -42.93080000     -32.44790000     -70.41190000
H      -44.69980000     -29.07170000     -68.66780000
H      -44.68160000     -30.10010000     -66.50420000
C      -43.50870000     -30.03110000     -71.09560000
H      -42.71690000     -30.47440000     -71.64500000
H      -43.24810000     -28.99550000     -71.06220000
C      -43.05090000     -34.12360000     -68.27630000
H      -41.97370000     -34.34770000     -68.57260000
H      -43.21960000     -34.56590000     -67.25620000
S      -45.07670000     -30.32280000     -72.17910000
S      -44.09340000     -35.09930000     -69.46330000
C      -46.11650000     -31.52300000     -71.12820000
H      -45.41170000     -32.24760000     -70.89690000
H      -46.54610000     -31.02050000     -70.14800000
C      -45.82190000     -34.51080000     -69.25430000
H      -45.98060000     -33.41630000     -69.49620000
H      -46.09330000     -34.65960000     -68.15280000
C      -46.78580000     -35.30200000     -70.18110000
H      -46.78980000     -36.22160000     -69.68630000
H      -47.76590000     -34.82790000     -70.22700000
C      -47.26620000     -32.20890000     -71.91740000
H      -47.95450000     -31.38890000     -72.28200000
H      -47.92160000     -32.68330000     -71.19180000
C      -46.96050000     -33.25030000     -72.98950000
C      -46.93530000     -32.83350000     -74.31830000
C      -46.56530000     -34.57820000     -72.76150000
H      -47.23330000     -31.95020000     -74.71340000
C      -46.29560000     -35.22090000     -73.97340000
C      -46.43090000     -35.50040000     -71.63660000
C      -46.01320000     -36.74420000     -72.03050000
S      -46.65900000     -34.25180000     -75.39820000
S      -45.74690000     -36.87530000     -73.80270000
H      -46.21180000     -37.69240000     -71.59730000
