40
Properties=species:S:1:pos:R:3 #=T CELL(abcABC):=T 1.889726e+02=T 90.00000=T Traj:=T positionsangstrom=T Step:=T 0=T Bead:=T pbc="F F F"
C      -44.28950000     -32.08750000     -67.28020000
C      -43.61200000     -32.70990000     -68.33590000
C      -43.27280000     -31.97430000     -69.46650000
C      -43.74650000     -30.68130000     -69.69540000
C      -44.44290000     -30.08590000     -68.62350000
C      -44.64020000     -30.72740000     -67.41090000
H      -44.57160000     -32.54730000     -66.36930000
H      -42.69990000     -32.49430000     -70.22610000
H      -44.80550000     -29.04200000     -68.66020000
H      -45.21720000     -30.16120000     -66.62780000
C      -43.66210000     -29.99320000     -71.03540000
H      -42.67710000     -30.35850000     -71.54000000
H      -43.59120000     -28.88040000     -70.90840000
C      -43.19640000     -34.15840000     -68.29530000
H      -42.18680000     -34.17200000     -68.48010000
H      -43.47590000     -34.51720000     -67.31680000
S      -45.05470000     -30.28930000     -72.20660000
S      -43.99880000     -35.10970000     -69.61020000
C      -46.03500000     -31.57860000     -71.26760000
H      -45.34030000     -32.38510000     -71.08210000
H      -46.13940000     -31.23590000     -70.24590000
C      -45.75740000     -34.59560000     -69.23880000
H      -45.71220000     -33.50390000     -69.42490000
H      -45.98720000     -34.79670000     -68.22820000
C      -46.73440000     -35.33240000     -70.15200000
H      -47.00000000     -36.38720000     -69.86820000
H      -47.66890000     -34.68120000     -70.06950000
C      -47.29410000     -32.10480000     -71.94840000
H      -47.80030000     -31.38660000     -72.62310000
H      -48.07960000     -32.39700000     -71.20840000
C      -47.03230000     -33.18760000     -72.92730000
C      -47.10160000     -32.91540000     -74.27180000
C      -46.50720000     -34.59030000     -72.70270000
H      -47.54140000     -32.04160000     -74.70120000
C      -46.14420000     -35.16620000     -73.93070000
C      -46.29680000     -35.50970000     -71.58810000
C      -45.90820000     -36.74420000     -72.00870000
S      -46.44990000     -34.22690000     -75.33490000
S      -45.65080000     -36.80610000     -73.75510000
H      -45.67480000     -37.61450000     -71.43660000
