40
Properties=species:S:1:pos:R:3 #=T CELL(abcABC):=T 1.889726e+02=T 90.00000=T Traj:=T positionsangstrom=T Step:=T 0=T Bead:=T pbc="F F F"
C      -43.72860000     -31.89350000     -67.22510000
C      -43.31530000     -32.64090000     -68.31100000
C      -43.26490000     -31.97200000     -69.57440000
C      -43.54880000     -30.63190000     -69.78930000
C      -43.94030000     -29.90180000     -68.59710000
C      -43.95570000     -30.51490000     -67.34290000
H      -43.84320000     -32.31770000     -66.20440000
H      -42.98160000     -32.60800000     -70.45310000
H      -44.17830000     -28.84530000     -68.57410000
H      -44.16200000     -29.91080000     -66.48380000
C      -43.62690000     -29.97980000     -71.14990000
H      -42.90270000     -30.34620000     -71.90070000
H      -43.71930000     -28.84880000     -71.09360000
C      -43.16170000     -34.12050000     -68.16700000
H      -42.12550000     -34.45280000     -68.28210000
H      -43.43290000     -34.58030000     -67.26790000
S      -45.21300000     -30.44200000     -72.20490000
S      -44.07410000     -35.20160000     -69.44850000
C      -46.16310000     -31.67110000     -71.16760000
H      -45.45200000     -32.44290000     -70.85070000
H      -46.53660000     -31.16190000     -70.28460000
C      -45.78170000     -34.58310000     -69.25090000
H      -45.75630000     -33.53110000     -69.35030000
H      -46.08940000     -34.71120000     -68.22970000
C      -46.86610000     -35.19740000     -70.20350000
H      -47.27480000     -36.19470000     -69.92510000
H      -47.84260000     -34.66100000     -70.04310000
C      -47.39170000     -32.17780000     -71.87230000
H      -47.85490000     -31.30380000     -72.37200000
H      -48.01540000     -32.57460000     -71.06940000
C      -47.10140000     -33.24200000     -72.95330000
C      -46.99780000     -32.90050000     -74.26980000
C      -46.63750000     -34.59290000     -72.78740000
H      -47.11380000     -31.93500000     -74.65440000
C      -46.36700000     -35.24390000     -74.03500000
C      -46.47580000     -35.47110000     -71.60670000
C      -46.02130000     -36.67900000     -72.03020000
S      -46.49930000     -34.16170000     -75.38530000
S      -45.89940000     -36.91790000     -73.82670000
H      -45.80150000     -37.59320000     -71.45440000
