40
Properties=species:S:1:pos:R:3 #=T CELL(abcABC):=T 1.889726e+02=T 90.00000=T Traj:=T positionsangstrom=T Step:=T 0=T Bead:=T pbc="F F F"
C      -49.14300000     -32.57830000     -70.41830000
C      -48.21420000     -32.71620000     -69.37750000
C      -47.28290000     -31.69730000     -69.10370000
C      -47.09890000     -30.66350000     -70.06130000
C      -47.96700000     -30.62240000     -71.13390000
C      -49.05150000     -31.54510000     -71.28000000
H      -49.85120000     -33.37430000     -70.62310000
H      -46.67480000     -31.70400000     -68.23390000
H      -47.79160000     -29.81110000     -71.83680000
H      -49.65420000     -31.47820000     -72.17080000
C      -45.83310000     -29.78860000     -69.96500000
H      -45.25640000     -30.12060000     -69.04420000
H      -46.17810000     -28.76300000     -69.79370000
C      -48.18560000     -33.99300000     -68.59420000
H      -47.27920000     -34.03200000     -67.95990000
H      -49.08270000     -34.12040000     -68.04040000
S      -44.75620000     -29.63500000     -71.40960000
S      -48.15620000     -35.45580000     -69.73110000
C      -44.41980000     -31.36820000     -72.01980000
H      -45.32780000     -31.82790000     -72.36790000
H      -43.69240000     -31.37550000     -72.77490000
C      -46.47540000     -35.50720000     -70.53800000
H      -46.44680000     -36.50650000     -71.04850000
H      -45.65730000     -35.58530000     -69.79840000
C      -46.18020000     -34.52980000     -71.64220000
H      -47.04630000     -34.37660000     -72.24500000
H      -46.01400000     -33.48320000     -71.15770000
C      -43.90560000     -32.19680000     -70.82660000
H      -44.74740000     -32.44430000     -70.26180000
H      -43.12910000     -31.60970000     -70.29590000
C      -43.10900000     -33.29990000     -71.48510000
C      -41.71090000     -33.30740000     -71.51920000
C      -43.69910000     -34.43030000     -72.18650000
H      -41.04450000     -32.55250000     -71.15070000
C      -42.69030000     -35.14810000     -72.84870000
C      -44.99500000     -35.06260000     -72.41490000
C      -44.93510000     -36.20390000     -73.15230000
S      -41.05800000     -34.52800000     -72.55830000
S      -43.27380000     -36.57410000     -73.65370000
H      -45.78290000     -36.89890000     -73.32950000
