40
Properties=species:S:1:pos:R:3 #=T CELL(abcABC):=T 1.889726e+02=T 90.00000=T Traj:=T positionsangstrom=T Step:=T 0=T Bead:=T pbc="F F F"
C      -44.73330000     -30.79450000     -68.81680000
C      -45.61590000     -30.54350000     -69.91470000
C      -46.86170000     -31.19880000     -69.88530000
C      -47.17000000     -32.15930000     -68.89160000
C      -46.26880000     -32.38560000     -67.87840000
C      -45.05520000     -31.66620000     -67.74830000
H      -43.76400000     -30.23440000     -68.93860000
H      -47.54910000     -30.96530000     -70.69290000
H      -46.67780000     -33.16720000     -67.16850000
H      -44.40170000     -31.96280000     -66.96720000
C      -48.49180000     -32.92890000     -68.91070000
H      -49.15660000     -32.75590000     -69.79790000
H      -48.99490000     -32.65750000     -68.01180000
C      -45.25780000     -29.53150000     -70.93920000
H      -45.53300000     -28.55970000     -70.69010000
H      -44.17390000     -29.56190000     -71.14020000
S      -48.08920000     -34.76560000     -68.82900000
S      -46.17550000     -29.69870000     -72.54250000
C      -46.40340000     -35.14450000     -69.59660000
H      -45.73240000     -34.24760000     -69.35050000
H      -45.95540000     -35.99620000     -69.04680000
C      -45.21140000     -31.11290000     -73.23860000
H      -44.18760000     -30.82980000     -72.94960000
H      -45.11360000     -30.93350000     -74.29430000
C      -45.62360000     -32.48950000     -72.87460000
H      -45.93790000     -32.59440000     -71.83220000
H      -46.53610000     -32.63370000     -73.47900000
C      -46.54090000     -35.26380000     -71.10320000
H      -46.89730000     -34.26470000     -71.40330000
H      -47.25560000     -36.05520000     -71.34940000
C      -45.18260000     -35.61400000     -71.73980000
C      -44.65980000     -36.86980000     -71.72580000
C      -44.34220000     -34.83870000     -72.59960000
H      -45.05620000     -37.78260000     -71.23170000
C      -43.23850000     -35.50080000     -73.11520000
C      -44.49050000     -33.49740000     -73.15570000
C      -43.38840000     -33.23730000     -73.98170000
S      -43.17540000     -37.16140000     -72.65760000
S      -42.32400000     -34.59820000     -74.21180000
H      -43.36490000     -32.46450000     -74.74650000
