40
Properties=species:S:1:pos:R:3 #=T CELL(abcABC):=T 1.889726e+02=T 90.00000=T Traj:=T positionsangstrom=T Step:=T 0=T Bead:=T pbc="F F F"
C      -45.93880000     -32.82830000     -67.64810000
C      -45.42250000     -31.78420000     -68.36620000
C      -46.20020000     -31.17680000     -69.36130000
C      -47.44420000     -31.72050000     -69.68120000
C      -47.92980000     -32.78640000     -68.91090000
C      -47.18900000     -33.27750000     -67.84500000
H      -45.27040000     -33.28310000     -66.94320000
H      -45.73340000     -30.24940000     -69.89630000
H      -48.86450000     -33.23430000     -69.28240000
H      -47.60960000     -34.09360000     -67.27280000
C      -48.41300000     -31.13560000     -70.69100000
H      -48.83620000     -30.19400000     -70.34420000
H      -49.27070000     -31.84670000     -70.70550000
C      -44.10630000     -31.22650000     -67.94720000
H      -44.18120000     -30.20340000     -67.67460000
H      -43.69190000     -31.73080000     -67.03340000
S      -47.88930000     -30.80440000     -72.44770000
S      -42.79980000     -31.10680000     -69.21480000
C      -47.20900000     -32.50590000     -72.86860000
H      -46.95580000     -32.83140000     -71.87620000
H      -48.08280000     -32.99320000     -73.33550000
C      -42.92860000     -32.90450000     -69.91570000
H      -43.57170000     -33.35170000     -69.17100000
H      -41.93980000     -33.37680000     -69.92910000
C      -43.58300000     -32.95490000     -71.28820000
H      -44.59120000     -32.41430000     -71.17300000
H      -43.11310000     -32.35040000     -72.04570000
C      -45.99380000     -32.66830000     -73.76660000
H      -45.18660000     -31.89890000     -73.58200000
H      -46.31120000     -32.41240000     -74.74740000
C      -45.52310000     -34.06950000     -73.82690000
C      -45.91200000     -34.97180000     -74.85850000
C      -44.65990000     -34.73960000     -72.88750000
H      -46.47280000     -34.58440000     -75.73000000
C      -44.61190000     -36.13520000     -73.10980000
C      -43.72010000     -34.37580000     -71.78700000
C      -42.98420000     -35.38740000     -71.27150000
S      -45.32180000     -36.64870000     -74.59410000
S      -43.42920000     -37.00300000     -72.07280000
H      -42.21220000     -35.34420000     -70.54190000
