40
Properties=species:S:1:pos:R:3 #=T CELL(abcABC):=T 1.889726e+02=T 90.00000=T Traj:=T positionsangstrom=T Step:=T 0=T Bead:=T pbc="F F F"
C      -44.79570000     -30.03020000     -68.33590000
C      -45.23030000     -30.18630000     -69.67600000
C      -46.38640000     -30.90190000     -69.90220000
C      -46.97390000     -31.77570000     -68.95270000
C      -46.43530000     -31.71310000     -67.68730000
C      -45.39920000     -30.82950000     -67.30870000
H      -43.97900000     -29.38010000     -67.96020000
H      -46.76730000     -30.82910000     -70.99540000
H      -46.88750000     -32.36250000     -66.87360000
H      -45.27470000     -30.82020000     -66.19930000
C      -48.13630000     -32.55740000     -69.31930000
H      -48.33050000     -32.50120000     -70.35300000
H      -49.03760000     -32.33550000     -68.69130000
C      -44.72300000     -29.25200000     -70.74060000
H      -45.10640000     -28.19750000     -70.50670000
H      -43.67060000     -29.11490000     -70.44910000
S      -48.00910000     -34.39300000     -68.91170000
S      -45.10340000     -29.75050000     -72.43920000
C      -46.65860000     -35.09650000     -70.03300000
H      -45.75930000     -34.64700000     -69.69010000
H      -46.65240000     -36.21240000     -69.85070000
C      -44.08190000     -31.24250000     -72.64130000
H      -43.06470000     -30.92570000     -72.15750000
H      -43.99570000     -31.30580000     -73.69400000
C      -44.72780000     -32.51450000     -72.18250000
H      -44.66750000     -32.58130000     -71.01170000
H      -45.80550000     -32.45870000     -72.47220000
C      -46.94540000     -34.90030000     -71.51890000
H      -46.82850000     -33.80420000     -71.60750000
H      -48.01150000     -35.12000000     -71.74180000
C      -45.94020000     -35.71050000     -72.24710000
C      -46.06790000     -37.02900000     -72.61260000
C      -44.67180000     -35.17100000     -72.67510000
H      -46.88400000     -37.71290000     -72.32700000
C      -43.87170000     -36.07320000     -73.34010000
C      -44.11760000     -33.80470000     -72.67820000
C      -42.91690000     -33.83530000     -73.34350000
S      -44.58920000     -37.66160000     -73.38080000
S      -42.33540000     -35.36400000     -73.95140000
H      -42.31480000     -32.94800000     -73.41300000
