40
Properties=species:S:1:pos:R:3 #=T CELL(abcABC):=T 1.889726e+02=T 90.00000=T Traj:=T positionsangstrom=T Step:=T 0=T Bead:=T pbc="F F F"
C      -46.45080000     -33.18340000     -68.07060000
C      -45.74570000     -31.97800000     -68.27900000
C      -46.37650000     -30.97780000     -69.03470000
C      -47.59380000     -31.18350000     -69.69280000
C      -48.30910000     -32.39630000     -69.42510000
C      -47.68290000     -33.43670000     -68.66680000
H      -46.03810000     -33.95440000     -67.44030000
H      -45.95340000     -30.00890000     -69.03640000
H      -49.26340000     -32.64930000     -69.90150000
H      -48.03560000     -34.45520000     -68.55730000
C      -48.02470000     -30.16010000     -70.64880000
H      -47.83140000     -29.10450000     -70.40690000
H      -49.05250000     -30.38810000     -70.94520000
C      -44.38790000     -31.75530000     -67.64490000
H      -44.34520000     -30.84610000     -67.00050000
H      -44.05350000     -32.62070000     -67.10690000
S      -46.95750000     -30.38620000     -72.20190000
S      -43.07070000     -31.54940000     -69.05610000
C      -46.85040000     -32.22630000     -72.40910000
H      -46.53720000     -32.58560000     -71.43410000
H      -47.83060000     -32.61600000     -72.58000000
C      -42.75740000     -33.13640000     -69.91390000
H      -43.02240000     -34.03470000     -69.26380000
H      -41.62420000     -33.15340000     -70.13660000
C      -43.64820000     -33.23870000     -71.11410000
H      -44.64990000     -32.87860000     -70.84740000
H      -43.29300000     -32.42940000     -71.84590000
C      -45.91620000     -32.70440000     -73.53280000
H      -44.95060000     -32.17020000     -73.43520000
H      -46.37630000     -32.35890000     -74.44810000
C      -45.64970000     -34.14390000     -73.66090000
C      -46.30760000     -34.98220000     -74.55540000
C      -44.73780000     -34.88710000     -72.77620000
H      -46.83020000     -34.64340000     -75.42490000
C      -44.50600000     -36.18440000     -73.21020000
C      -43.70710000     -34.56220000     -71.80220000
C      -42.79790000     -35.62180000     -71.56460000
S      -45.62900000     -36.58940000     -74.55740000
S      -43.16210000     -36.98770000     -72.54400000
H      -41.93460000     -35.78190000     -70.86300000
