40
Properties=species:S:1:pos:R:3 #=T CELL(abcABC):=T 1.889726e+02=T 90.00000=T Traj:=T positionsangstrom=T Step:=T 0=T Bead:=T pbc="F F F"
C      -46.78030000     -33.30010000     -68.19540000
C      -45.80490000     -32.32630000     -68.33140000
C      -46.05670000     -31.14320000     -69.06650000
C      -47.27780000     -30.98850000     -69.69280000
C      -48.31580000     -31.88540000     -69.44710000
C      -48.07910000     -33.00310000     -68.69240000
H      -46.60720000     -34.31390000     -67.76050000
H      -45.22570000     -30.43060000     -69.28210000
H      -49.24930000     -31.74990000     -69.94040000
H      -48.89170000     -33.73190000     -68.60880000
C      -47.55670000     -29.85410000     -70.62940000
H      -46.85000000     -29.10320000     -70.26420000
H      -48.50670000     -29.41340000     -70.81070000
C      -44.43650000     -32.51000000     -67.72910000
H      -44.27500000     -31.87700000     -66.93130000
H      -44.15190000     -33.51780000     -67.55130000
S      -46.75750000     -30.29940000     -72.26060000
S      -42.96970000     -31.78880000     -68.71950000
C      -46.91810000     -32.12880000     -72.37120000
H      -46.65750000     -32.55180000     -71.44550000
H      -47.95610000     -32.37900000     -72.62840000
C      -42.72570000     -33.14110000     -69.94110000
H      -42.37350000     -34.01300000     -69.25410000
H      -41.79950000     -32.98970000     -70.49760000
C      -43.90340000     -33.36410000     -70.91090000
H      -44.88200000     -33.37100000     -70.38630000
H      -43.90360000     -32.42610000     -71.47940000
C      -45.96620000     -32.58220000     -73.54450000
H      -44.99220000     -32.10120000     -73.32630000
H      -46.39000000     -32.24500000     -74.49240000
C      -45.67350000     -34.09330000     -73.66570000
C      -46.24160000     -34.91400000     -74.63230000
C      -44.70260000     -34.86630000     -72.89110000
H      -47.12760000     -34.70710000     -75.25480000
C      -44.54030000     -36.16050000     -73.40960000
C      -43.81400000     -34.60590000     -71.78530000
C      -43.05870000     -35.66140000     -71.45750000
S      -45.65440000     -36.52910000     -74.67060000
S      -43.27150000     -36.98440000     -72.56260000
H      -42.27470000     -35.66750000     -70.74330000
