40
Properties=species:S:1:pos:R:3 #=T CELL(abcABC):=T 1.889726e+02=T 90.00000=T Traj:=T positionsangstrom=T Step:=T 0=T Bead:=T pbc="F F F"
C      -45.87380000     -37.10920000     -71.21970000
C      -46.08570000     -35.80190000     -71.64940000
C      -45.08140000     -34.94360000     -71.99680000
C      -43.72640000     -35.36060000     -71.89350000
C      -43.47320000     -36.64550000     -71.47190000
C      -44.53390000     -37.58540000     -71.19600000
H      -46.74240000     -37.75140000     -71.08700000
H      -45.37130000     -33.93790000     -72.25110000
H      -42.46930000     -37.04040000     -71.27710000
H      -44.36080000     -38.62490000     -70.91430000
C      -42.59950000     -34.37160000     -71.94380000
H      -42.92980000     -33.47720000     -72.36080000
H      -41.80920000     -34.92710000     -72.33990000
C      -47.60030000     -35.32710000     -71.67430000
H      -47.72720000     -34.48750000     -72.34950000
H      -48.21190000     -36.16930000     -72.12320000
S      -41.81920000     -34.02340000     -70.22650000
S      -48.37170000     -34.89450000     -70.06760000
C      -43.33130000     -33.39720000     -69.33610000
H      -44.16340000     -34.05030000     -69.60430000
H      -43.02860000     -33.43760000     -68.29070000
C      -46.98070000     -33.89740000     -69.32480000
H      -46.02980000     -34.01030000     -69.92720000
H      -46.74270000     -34.14700000     -68.29790000
C      -47.21140000     -32.36320000     -69.43430000
H      -48.13140000     -31.99640000     -68.93430000
H      -46.43530000     -31.95510000     -68.73920000
C      -43.75660000     -31.90390000     -69.50660000
H      -42.88500000     -31.32860000     -69.35500000
H      -44.52530000     -31.67740000     -68.81890000
C      -44.27390000     -31.66270000     -70.90040000
C      -43.38310000     -31.26260000     -71.85280000
C      -45.68740000     -31.52740000     -71.34080000
H      -42.30820000     -31.12620000     -71.80940000
C      -45.74770000     -31.01790000     -72.62550000
C      -46.96470000     -31.77400000     -70.76350000
C      -47.96020000     -31.57460000     -71.71210000
S      -44.21430000     -30.70710000     -73.36340000
S      -47.37780000     -31.06110000     -73.28650000
H      -49.00580000     -31.77790000     -71.46290000
