40
Properties=species:S:1:pos:R:3 #=T CELL(abcABC):=T 1.889726e+02=T 90.00000=T Traj:=T positionsangstrom=T Step:=T 0=T Bead:=T pbc="F F F"
C      -45.67580000     -32.57500000     -67.68600000
C      -45.48350000     -31.38650000     -68.33740000
C      -46.45210000     -30.96400000     -69.23340000
C      -47.60920000     -31.75860000     -69.49110000
C      -47.70920000     -32.99310000     -68.84240000
C      -46.66910000     -33.44810000     -68.05180000
H      -44.91230000     -32.92490000     -66.98110000
H      -46.16340000     -30.26270000     -69.93690000
H      -48.58280000     -33.59550000     -68.97920000
H      -46.72940000     -34.48070000     -67.65200000
C      -48.76370000     -31.34840000     -70.45230000
H      -49.09570000     -30.36900000     -70.25170000
H      -49.48610000     -32.14530000     -70.38020000
C      -44.08450000     -30.69570000     -68.23170000
H      -44.20710000     -29.60380000     -67.99820000
H      -43.50560000     -31.02290000     -67.40350000
S      -48.07490000     -31.20320000     -72.25980000
S      -42.99650000     -30.85140000     -69.71120000
C      -47.08090000     -32.76330000     -72.48980000
H      -46.56880000     -32.97900000     -71.54390000
H      -47.75200000     -33.61280000     -72.65090000
C      -42.98870000     -32.71430000     -69.99280000
H      -43.27350000     -33.28290000     -69.03980000
H      -41.96870000     -32.96400000     -70.27210000
C      -44.02630000     -33.09960000     -71.01610000
H      -44.98850000     -32.74550000     -70.56990000
H      -43.87450000     -32.44880000     -71.96400000
C      -46.06480000     -32.74260000     -73.68480000
H      -45.27520000     -32.03700000     -73.57780000
H      -46.55160000     -32.53700000     -74.65740000
C      -45.42030000     -34.07810000     -73.84040000
C      -45.53000000     -34.86450000     -74.97870000
C      -44.69470000     -34.84590000     -72.78180000
H      -46.10330000     -34.64380000     -75.95580000
C      -44.32600000     -36.12070000     -73.18820000
C      -44.02860000     -34.55080000     -71.51860000
C      -43.20090000     -35.50150000     -71.04670000
S      -44.92140000     -36.52200000     -74.81240000
S      -43.43850000     -37.03670000     -72.02650000
H      -42.67400000     -35.49240000     -70.08520000
