40
Properties=species:S:1:pos:R:3 #=T CELL(abcABC):=T 1.889726e+02=T 90.00000=T Traj:=T positionsangstrom=T Step:=T 0=T Bead:=T pbc="F F F"
C      -45.81280000     -32.73550000     -67.66250000
C      -45.38550000     -31.61780000     -68.37110000
C      -46.25670000     -31.16530000     -69.38760000
C      -47.56010000     -31.67290000     -69.58980000
C      -47.91050000     -32.83400000     -68.81300000
C      -47.00180000     -33.42530000     -67.89130000
H      -45.13600000     -33.07660000     -66.86940000
H      -45.95020000     -30.24460000     -69.96900000
H      -48.82570000     -33.38910000     -68.97430000
H      -47.21920000     -34.36090000     -67.43050000
C      -48.40280000     -31.12880000     -70.66200000
H      -48.60600000     -30.05260000     -70.57250000
H      -49.42760000     -31.53010000     -70.51710000
C      -44.12830000     -30.83660000     -68.04110000
H      -44.36400000     -29.76350000     -67.82390000
H      -43.70280000     -31.38150000     -67.18240000
S      -47.81160000     -31.27280000     -72.37700000
S      -42.80580000     -30.96800000     -69.40260000
C      -47.32830000     -32.96400000     -72.67880000
H      -47.00560000     -33.57320000     -71.75220000
H      -48.01580000     -33.66510000     -73.16330000
C      -42.82170000     -32.72780000     -69.95270000
H      -42.99140000     -33.48050000     -69.17210000
H      -41.77740000     -32.85800000     -70.23540000
C      -43.82500000     -32.90410000     -71.08510000
H      -44.77240000     -32.45770000     -70.79230000
H      -43.45060000     -32.33530000     -71.88320000
C      -46.11000000     -32.75280000     -73.56700000
H      -45.43020000     -32.07010000     -73.04570000
H      -46.46080000     -32.27280000     -74.46130000
C      -45.43820000     -34.01040000     -73.87120000
C      -45.85160000     -34.88240000     -74.85500000
C      -44.48470000     -34.72140000     -73.00660000
H      -46.65740000     -34.64720000     -75.66430000
C      -44.23500000     -36.05240000     -73.34720000
C      -43.92320000     -34.39000000     -71.71230000
C      -43.39320000     -35.48650000     -71.10990000
S      -45.23910000     -36.52030000     -74.73690000
S      -43.51860000     -36.91500000     -72.02310000
H      -42.98290000     -35.69360000     -70.17050000
