40
Properties=species:S:1:pos:R:3 #=T CELL(abcABC):=T 1.889726e+02=T 90.00000=T Traj:=T positionsangstrom=T Step:=T 0=T Bead:=T pbc="F F F"
C      -46.03270000     -36.82050000     -69.91860000
C      -46.36510000     -35.76500000     -70.77500000
C      -45.23720000     -35.17150000     -71.48680000
C      -43.90560000     -35.53790000     -71.25430000
C      -43.64030000     -36.62370000     -70.33910000
C      -44.72360000     -37.30680000     -69.79110000
H      -46.80510000     -37.32330000     -69.39320000
H      -45.41870000     -34.37040000     -72.24390000
H      -42.70490000     -37.13280000     -70.26230000
H      -44.62870000     -38.19450000     -69.13350000
C      -42.81550000     -34.79680000     -71.97770000
H      -43.30940000     -34.07290000     -72.60940000
H      -42.14590000     -35.50330000     -72.54620000
C      -47.70180000     -35.11030000     -70.86360000
H      -47.52060000     -34.31770000     -71.59770000
H      -48.59370000     -35.67140000     -71.13600000
S      -41.73420000     -33.88740000     -70.82930000
S      -48.12360000     -34.26530000     -69.16040000
C      -42.83550000     -32.73620000     -69.89110000
H      -43.77370000     -33.31120000     -69.57360000
H      -42.32020000     -32.46710000     -68.94760000
C      -46.59920000     -33.22840000     -68.79660000
H      -45.77110000     -33.85600000     -69.13180000
H      -46.56350000     -33.11660000     -67.72940000
C      -46.69390000     -31.84510000     -69.51940000
H      -47.63230000     -31.34500000     -69.27650000
H      -45.83110000     -31.30720000     -69.15980000
C      -43.24510000     -31.36850000     -70.52870000
H      -42.26000000     -30.91300000     -70.61300000
H      -43.76000000     -30.84190000     -69.74150000
C      -44.03620000     -31.69490000     -71.80510000
C      -43.51290000     -31.53130000     -73.07980000
C      -45.49580000     -31.87460000     -71.91860000
H      -42.41330000     -31.49060000     -73.25450000
C      -45.94180000     -31.72820000     -73.24370000
C      -46.65100000     -31.92260000     -71.00670000
C      -47.87310000     -31.72540000     -71.64810000
S      -44.65170000     -31.46090000     -74.37540000
S      -47.71460000     -31.51330000     -73.39730000
H      -48.89110000     -31.46560000     -71.36650000
