40
Properties=species:S:1:pos:R:3 #=T CELL(abcABC):=T 1.889726e+02=T 90.00000=T Traj:=T positionsangstrom=T Step:=T 0=T Bead:=T pbc="F F F"
C      -45.89160000     -36.57380000     -69.48850000
C      -46.23000000     -35.51630000     -70.40720000
C      -45.23950000     -35.21280000     -71.30040000
C      -43.92580000     -35.78140000     -71.29870000
C      -43.60900000     -36.74720000     -70.40320000
C      -44.60480000     -37.11020000     -69.45620000
H      -46.62680000     -36.77480000     -68.71500000
H      -45.43020000     -34.47330000     -72.00190000
H      -42.66000000     -37.22140000     -70.26530000
H      -44.42280000     -37.89060000     -68.74340000
C      -42.94080000     -35.07210000     -72.07600000
H      -43.32820000     -34.33360000     -72.80460000
H      -42.38040000     -35.69040000     -72.74760000
C      -47.61780000     -34.82300000     -70.46760000
H      -47.82290000     -34.22540000     -71.33930000
H      -48.36550000     -35.64340000     -70.35890000
S      -41.79310000     -34.03340000     -71.00790000
S      -47.94880000     -33.64470000     -68.98270000
C      -43.00060000     -33.01870000     -70.03570000
H      -44.03120000     -33.42290000     -69.81530000
H      -42.46190000     -33.01870000     -69.02580000
C      -46.47810000     -32.60110000     -68.77900000
H      -45.58960000     -33.18240000     -69.14890000
H      -46.34490000     -32.46880000     -67.73750000
C      -46.59170000     -31.33710000     -69.62850000
H      -47.49350000     -30.79180000     -69.29200000
H      -45.74700000     -30.67340000     -69.42040000
C      -43.21570000     -31.59820000     -70.74470000
H      -42.21810000     -31.22140000     -70.93220000
H      -43.61940000     -30.94720000     -70.05610000
C      -44.10810000     -31.57360000     -71.93350000
C      -43.60290000     -31.65540000     -73.19100000
C      -45.57030000     -31.62720000     -71.96930000
H      -42.60310000     -31.45590000     -73.60830000
C      -46.01640000     -31.78340000     -73.27880000
C      -46.74990000     -31.60240000     -71.07800000
C      -47.90390000     -31.94290000     -71.74020000
S      -44.78480000     -31.90470000     -74.48480000
S      -47.70920000     -32.03840000     -73.51140000
H      -48.93680000     -31.96810000     -71.32990000
