40
Properties=species:S:1:pos:R:3 #=T CELL(abcABC):=T 1.889726e+02=T 90.00000=T Traj:=T positionsangstrom=T Step:=T 0=T Bead:=T pbc="F F F"
C      -45.87430000     -36.36080000     -69.31240000
C      -46.24420000     -35.36660000     -70.22030000
C      -45.21850000     -35.03170000     -71.11780000
C      -43.98160000     -35.66400000     -71.09110000
C      -43.66940000     -36.76320000     -70.26930000
C      -44.66040000     -37.16960000     -69.36430000
H      -46.66810000     -36.80190000     -68.72580000
H      -45.48360000     -34.37590000     -71.93510000
H      -42.79540000     -37.28680000     -70.49190000
H      -44.51510000     -37.99330000     -68.66500000
C      -42.96920000     -35.08930000     -72.03640000
H      -43.43710000     -34.63260000     -72.93530000
H      -42.29830000     -35.92200000     -72.35260000
C      -47.66390000     -34.84300000     -70.20270000
H      -47.88570000     -34.40020000     -71.18350000
H      -48.35250000     -35.65890000     -70.09930000
S      -41.76500000     -33.98880000     -71.23560000
S      -47.96340000     -33.58950000     -68.94380000
C      -42.94050000     -32.97330000     -70.15230000
H      -43.71040000     -33.54120000     -69.78320000
H      -42.39600000     -32.65890000     -69.32130000
C      -46.60250000     -32.37970000     -68.67660000
H      -45.61820000     -32.90950000     -68.85170000
H      -46.80900000     -32.05160000     -67.63780000
C      -46.59410000     -31.15270000     -69.66520000
H      -47.52930000     -30.60070000     -69.47580000
H      -45.73240000     -30.51880000     -69.49580000
C      -43.34940000     -31.64110000     -70.79360000
H      -42.49140000     -30.96180000     -71.15650000
H      -43.88870000     -30.98720000     -70.03220000
C      -44.14020000     -31.81880000     -72.05250000
C      -43.48260000     -31.81730000     -73.25840000
C      -45.55910000     -31.82660000     -72.12460000
H      -42.42560000     -31.81540000     -73.48720000
C      -46.02120000     -32.16240000     -73.40110000
C      -46.64120000     -31.56680000     -71.16440000
C      -47.83420000     -31.59690000     -71.81570000
S      -44.65520000     -32.01360000     -74.61030000
S      -47.77450000     -32.18540000     -73.42140000
H      -48.73410000     -31.52640000     -71.21940000
