40
Properties=species:S:1:pos:R:3 #=T CELL(abcABC):=T 1.889726e+02=T 90.00000=T Traj:=T positionsangstrom=T Step:=T 0=T Bead:=T pbc="F F F"
C      -45.85250000     -35.95760000     -68.55210000
C      -46.31220000     -35.32940000     -69.74870000
C      -45.38250000     -35.09220000     -70.76920000
C      -44.01390000     -35.46110000     -70.57720000
C      -43.67310000     -36.31080000     -69.50230000
C      -44.61980000     -36.57420000     -68.48460000
H      -46.41280000     -35.84820000     -67.62280000
H      -45.79610000     -34.72120000     -71.75790000
H      -42.64350000     -36.64100000     -69.32810000
H      -44.44670000     -37.21760000     -67.55810000
C      -42.95730000     -35.05670000     -71.54600000
H      -43.33970000     -34.80240000     -72.52530000
H      -42.44020000     -35.98150000     -71.68200000
C      -47.65260000     -34.79900000     -69.86210000
H      -47.98460000     -34.55210000     -70.90180000
H      -48.32150000     -35.47440000     -69.31070000
S      -41.73570000     -33.83920000     -70.90000000
S      -47.92520000     -33.06800000     -68.98810000
C      -42.70230000     -32.28780000     -70.55240000
H      -43.53960000     -32.60640000     -69.92230000
H      -42.05680000     -31.67720000     -69.96830000
C      -46.34890000     -32.19190000     -69.04190000
H      -45.58120000     -32.93020000     -69.17210000
H      -46.20130000     -31.81410000     -68.00230000
C      -46.11990000     -31.11030000     -70.07180000
H      -46.84830000     -30.28880000     -69.78090000
H      -45.09620000     -30.70170000     -69.88400000
C      -43.12780000     -31.46370000     -71.71020000
H      -42.27950000     -31.24400000     -72.35190000
H      -43.42100000     -30.43670000     -71.42070000
C      -44.11930000     -32.06640000     -72.68380000
C      -43.66510000     -32.57670000     -73.85350000
C      -45.52550000     -31.94130000     -72.59280000
H      -42.72480000     -32.60490000     -74.33840000
C      -46.20980000     -32.52410000     -73.69850000
C      -46.43550000     -31.52000000     -71.51630000
C      -47.76330000     -31.77190000     -71.77050000
S      -45.01240000     -32.96670000     -74.89510000
S      -47.94190000     -32.45940000     -73.50140000
H      -48.59690000     -31.57650000     -71.18780000
