40
Properties=species:S:1:pos:R:3 #=T CELL(abcABC):=T 1.889726e+02=T 90.00000=T Traj:=T positionsangstrom=T Step:=T 0=T Bead:=T pbc="F F F"
C      -46.10810000     -35.81940000     -68.61620000
C      -46.24970000     -35.16320000     -69.84890000
C      -45.19710000     -35.15720000     -70.76190000
C      -43.94730000     -35.76290000     -70.43950000
C      -43.71540000     -36.16450000     -69.12430000
C      -44.84430000     -36.28770000     -68.26780000
H      -46.80670000     -35.79270000     -67.77290000
H      -45.28220000     -34.69440000     -71.79250000
H      -42.72000000     -36.36190000     -68.75960000
H      -44.69980000     -36.74930000     -67.26670000
C      -42.72120000     -35.59060000     -71.39980000
H      -42.99250000     -35.49750000     -72.44060000
H      -42.06070000     -36.43230000     -71.30640000
C      -47.49850000     -34.36270000     -70.12150000
H      -47.56950000     -33.85990000     -71.12260000
H      -48.41410000     -34.99020000     -70.16770000
S      -41.63550000     -34.07500000     -71.03130000
S      -47.89610000     -33.02380000     -68.93400000
C      -42.89620000     -32.84690000     -70.33050000
H      -43.77900000     -33.34620000     -69.93190000
H      -42.35320000     -32.44550000     -69.48780000
C      -46.38870000     -31.84940000     -69.17110000
H      -45.51130000     -32.43980000     -69.33860000
H      -46.28550000     -31.31730000     -68.21590000
C      -46.58750000     -30.86130000     -70.32090000
H      -47.44070000     -30.24080000     -70.09850000
H      -45.65320000     -30.28820000     -70.25210000
C      -43.36700000     -31.63690000     -71.22470000
H      -42.61110000     -30.93640000     -71.44420000
H      -43.92610000     -31.05290000     -70.50000000
C      -44.18070000     -32.04560000     -72.39880000
C      -43.65060000     -32.46740000     -73.62400000
C      -45.60580000     -32.05570000     -72.44290000
H      -42.63200000     -32.48880000     -74.06020000
C      -46.05760000     -32.48250000     -73.71700000
C      -46.68280000     -31.49670000     -71.68160000
C      -47.88640000     -31.51430000     -72.33090000
S      -44.78860000     -33.05590000     -74.71850000
S      -47.82490000     -32.39340000     -73.89520000
H      -48.80240000     -30.95590000     -71.87020000
