40
Properties=species:S:1:pos:R:3 #=T CELL(abcABC):=T 1.889726e+02=T 90.00000=T Traj:=T positionsangstrom=T Step:=T 0=T Bead:=T pbc="F F F"
C      -45.85030000     -36.03380000     -68.66130000
C      -46.18880000     -35.18050000     -69.69720000
C      -45.24360000     -34.83700000     -70.66520000
C      -43.91390000     -35.32170000     -70.48520000
C      -43.55600000     -36.15610000     -69.43530000
C      -44.54410000     -36.51720000     -68.51760000
H      -46.62810000     -36.39580000     -68.01310000
H      -45.48840000     -34.07470000     -71.40250000
H      -42.56660000     -36.55080000     -69.29080000
H      -44.23970000     -37.29170000     -67.75470000
C      -42.87840000     -35.09220000     -71.55820000
H      -43.29500000     -34.67280000     -72.50170000
H      -42.28430000     -36.00750000     -71.91010000
C      -47.61870000     -34.66840000     -69.77160000
H      -47.97590000     -34.68790000     -70.81060000
H      -48.32870000     -35.31720000     -69.29570000
S      -41.73120000     -33.90540000     -70.88730000
S      -47.99300000     -33.02950000     -68.99070000
C      -42.84050000     -32.49160000     -70.49120000
H      -43.69620000     -32.85310000     -69.91020000
H      -42.23760000     -31.88910000     -69.75650000
C      -46.35270000     -32.22670000     -68.88180000
H      -45.56190000     -32.96910000     -68.94050000
H      -46.33310000     -31.66560000     -67.93500000
C      -46.29110000     -31.09340000     -70.02640000
H      -47.03470000     -30.36020000     -69.85160000
H      -45.35930000     -30.52740000     -70.00920000
C      -43.16470000     -31.58750000     -71.67240000
H      -42.13550000     -31.25200000     -72.07950000
H      -43.51700000     -30.60240000     -71.27190000
C      -44.09010000     -32.13770000     -72.69460000
C      -43.75040000     -32.59950000     -73.89520000
C      -45.51880000     -32.04400000     -72.48900000
H      -42.70960000     -32.74840000     -74.23500000
C      -46.16110000     -32.55120000     -73.64070000
C      -46.53470000     -31.56020000     -71.54040000
C      -47.80140000     -31.70300000     -72.06280000
S      -45.06650000     -33.11710000     -74.89190000
S      -47.88160000     -32.36230000     -73.64890000
H      -48.69590000     -31.45670000     -71.61800000
