40
Properties=species:S:1:pos:R:3 #=T CELL(abcABC):=T 1.889726e+02=T 90.00000=T Traj:=T positionsangstrom=T Step:=T 0=T Bead:=T pbc="F F F"
C      -46.04700000     -35.81120000     -68.54830000
C      -46.25440000     -35.14870000     -69.81420000
C      -45.14160000     -35.02040000     -70.68270000
C      -43.91600000     -35.62690000     -70.38930000
C      -43.73100000     -36.34750000     -69.15990000
C      -44.81370000     -36.34560000     -68.25340000
H      -46.89560000     -35.84670000     -67.84930000
H      -45.21340000     -34.63120000     -71.66120000
H      -42.76710000     -36.82500000     -68.83600000
H      -44.63940000     -36.89910000     -67.33750000
C      -42.76580000     -35.49610000     -71.37250000
H      -43.24590000     -35.55770000     -72.41740000
H      -42.01900000     -36.31890000     -71.24750000
C      -47.57220000     -34.54230000     -70.16860000
H      -47.53010000     -34.22620000     -71.21370000
H      -48.39400000     -35.13880000     -69.89770000
S      -41.73080000     -33.94700000     -71.00110000
S      -47.77470000     -33.11170000     -68.96570000
C      -42.80430000     -32.58620000     -70.34210000
H      -43.61570000     -33.02320000     -69.71080000
H      -42.09810000     -32.01740000     -69.71730000
C      -46.28040000     -32.10450000     -69.29220000
H      -45.52890000     -32.71780000     -69.82000000
H      -45.79850000     -31.72570000     -68.37790000
C      -46.57190000     -30.88540000     -70.19650000
H      -47.43650000     -30.23850000     -69.93160000
H      -45.76210000     -30.18780000     -70.22160000
C      -43.28150000     -31.56200000     -71.42760000
H      -42.33160000     -31.10360000     -71.89290000
H      -43.85820000     -30.68880000     -70.89980000
C      -44.14670000     -32.17190000     -72.44980000
C      -43.63710000     -32.74370000     -73.58940000
C      -45.60690000     -31.89770000     -72.55270000
H      -42.55290000     -32.94080000     -73.85750000
C      -46.10300000     -32.34950000     -73.77810000
C      -46.70270000     -31.48020000     -71.65250000
C      -47.92910000     -31.65580000     -72.19990000
S      -44.89080000     -33.02990000     -74.76720000
S      -47.88330000     -32.33220000     -73.80280000
H      -48.90190000     -31.33930000     -71.71800000
