40
Properties=species:S:1:pos:R:3 #=T CELL(abcABC):=T 1.889726e+02=T 90.00000=T Traj:=T positionsangstrom=T Step:=T 0=T Bead:=T pbc="F F F"
C      -46.27640000     -35.81690000     -68.43880000
C      -46.62120000     -35.31540000     -69.71940000
C      -45.58980000     -35.12490000     -70.71220000
C      -44.25500000     -35.50800000     -70.47480000
C      -43.98880000     -36.03000000     -69.14540000
C      -44.98340000     -36.18560000     -68.14710000
H      -47.09680000     -35.81460000     -67.69070000
H      -45.82640000     -34.54950000     -71.58290000
H      -42.91220000     -36.15170000     -68.87000000
H      -44.76050000     -36.60210000     -67.13360000
C      -43.15220000     -35.35230000     -71.45880000
H      -43.51250000     -35.05140000     -72.48460000
H      -42.72350000     -36.34920000     -71.54560000
C      -47.92920000     -34.66770000     -69.99930000
H      -48.03370000     -34.82940000     -71.10260000
H      -48.79650000     -35.15400000     -69.54260000
S      -41.79580000     -34.16210000     -71.00660000
S      -48.20200000     -32.94330000     -69.36600000
C      -42.62920000     -32.70450000     -70.16000000
H      -43.54860000     -33.02100000     -69.62570000
H      -41.97980000     -32.34640000     -69.33740000
C      -46.56050000     -32.10170000     -69.22170000
H      -45.73380000     -32.78720000     -69.41020000
H      -46.38090000     -31.65230000     -68.23630000
C      -46.51780000     -31.00630000     -70.22980000
H      -47.44420000     -30.40410000     -70.16460000
H      -45.68390000     -30.36210000     -70.02040000
C      -42.88540000     -31.56890000     -71.13190000
H      -41.93100000     -31.45710000     -71.53440000
H      -43.06470000     -30.61770000     -70.73070000
C      -43.87920000     -32.12800000     -72.26660000
C      -43.37300000     -32.55110000     -73.47080000
C      -45.33870000     -32.05800000     -72.42540000
H      -42.30590000     -32.67990000     -73.67230000
C      -45.82190000     -32.63120000     -73.64010000
C      -46.45720000     -31.53640000     -71.63820000
C      -47.71130000     -31.56490000     -72.30200000
S      -44.55300000     -32.99840000     -74.73570000
S      -47.42360000     -32.30210000     -73.96900000
H      -48.64290000     -31.16440000     -72.07130000
