40
Properties=species:S:1:pos:R:3 #=T CELL(abcABC):=T 1.889726e+02=T 90.00000=T Traj:=T positionsangstrom=T Step:=T 0=T Bead:=T pbc="F F F"
C      -46.67880000     -35.44850000     -68.54720000
C      -46.60150000     -34.78840000     -69.81910000
C      -45.42280000     -34.85950000     -70.53680000
C      -44.29350000     -35.49900000     -70.02130000
C      -44.44160000     -36.20330000     -68.82230000
C      -45.55430000     -36.06040000     -68.02920000
H      -47.68780000     -35.39970000     -68.09900000
H      -45.44780000     -34.30000000     -71.44140000
H      -43.56730000     -36.70520000     -68.45220000
H      -45.54110000     -36.53010000     -66.97500000
C      -43.05000000     -35.53550000     -70.79820000
H      -43.24420000     -35.38110000     -71.89450000
H      -42.38940000     -36.37450000     -70.70110000
C      -47.81480000     -34.17200000     -70.43820000
H      -47.58490000     -33.80240000     -71.49410000
H      -48.66510000     -34.85050000     -70.38900000
S      -41.84160000     -34.13650000     -70.31120000
S      -48.21630000     -32.66100000     -69.44140000
C      -42.90870000     -32.66520000     -70.05210000
H      -43.81530000     -33.07890000     -69.64640000
H      -42.50290000     -32.08380000     -69.24050000
C      -46.66450000     -31.69190000     -69.45620000
H      -45.75870000     -32.37860000     -69.51580000
H      -46.62960000     -31.11050000     -68.47720000
C      -46.55480000     -30.77010000     -70.72750000
H      -47.43360000     -30.05560000     -70.81140000
H      -45.72690000     -30.13220000     -70.52960000
C      -43.22080000     -31.67160000     -71.18070000
H      -42.20280000     -31.34740000     -71.40050000
H      -43.92220000     -30.93440000     -70.76790000
C      -43.89630000     -32.27270000     -72.34920000
C      -43.20150000     -33.02540000     -73.25880000
C      -45.26880000     -32.08470000     -72.66140000
H      -42.17410000     -33.22250000     -73.10790000
C      -45.54620000     -32.74340000     -73.85840000
C      -46.44510000     -31.51250000     -72.07830000
C      -47.57020000     -31.65040000     -72.86890000
S      -44.11250000     -33.46800000     -74.64840000
S      -47.28800000     -32.64850000     -74.30670000
H      -48.62720000     -31.41410000     -72.58430000
