40
Properties=species:S:1:pos:R:3 #=T CELL(abcABC):=T 1.889726e+02=T 90.00000=T Traj:=T positionsangstrom=T Step:=T 0=T Bead:=T pbc="F F F"
C      -41.61630000     -35.01320000     -71.60750000
C      -42.60470000     -35.49700000     -72.54940000
C      -43.75320000     -36.14600000     -72.14910000
C      -43.93210000     -36.40070000     -70.75700000
C      -42.91300000     -36.03170000     -69.86000000
C      -41.81110000     -35.29170000     -70.24800000
H      -40.78370000     -34.43110000     -71.95460000
H      -44.43850000     -36.60010000     -72.87450000
H      -43.02150000     -36.05520000     -68.83970000
H      -41.18480000     -34.79330000     -69.50640000
C      -45.25740000     -37.06870000     -70.30200000
H      -45.01470000     -38.08590000     -69.90260000
H      -45.99650000     -37.17400000     -71.01930000
C      -42.51720000     -35.27390000     -74.02300000
H      -41.50230000     -35.41590000     -74.49530000
H      -43.06160000     -36.07590000     -74.58800000
S      -45.91680000     -36.25930000     -68.75980000
S      -43.10530000     -33.51500000     -74.45120000
C      -45.96670000     -34.44850000     -69.10450000
H      -46.12430000     -33.99000000     -68.17820000
H      -45.00250000     -34.11500000     -69.49680000
C      -44.74620000     -33.34220000     -73.63310000
H      -45.12950000     -34.37160000     -73.65050000
H      -45.40400000     -32.69610000     -74.23750000
C      -44.70330000     -32.85800000     -72.16710000
H      -45.13600000     -33.62380000     -71.60130000
H      -43.71100000     -32.71560000     -71.79380000
C      -47.16610000     -34.11310000     -70.09370000
H      -47.96430000     -34.64430000     -69.68330000
H      -47.07120000     -34.56380000     -71.06180000
C      -47.49280000     -32.62790000     -70.24690000
C      -48.65320000     -32.03320000     -69.76220000
C      -46.76620000     -31.68320000     -71.09400000
H      -49.44060000     -32.43940000     -69.17530000
C      -47.37850000     -30.38350000     -71.07590000
C      -45.54190000     -31.65080000     -71.86000000
C      -45.33340000     -30.44420000     -72.46870000
S      -48.82060000     -30.30950000     -70.09830000
S      -46.49580000     -29.24390000     -71.97220000
H      -44.49520000     -30.20030000     -73.11790000
