40
Properties=species:S:1:pos:R:3 #=T CELL(abcABC):=T 1.889726e+02=T 90.00000=T Traj:=T positionsangstrom=T Step:=T 0=T Bead:=T pbc="F F F"
C      -46.97810000     -35.69520000     -68.57900000
C      -46.93020000     -34.80890000     -69.68010000
C      -45.77100000     -34.72760000     -70.46360000
C      -44.55130000     -35.26310000     -69.96950000
C      -44.63160000     -36.08910000     -68.79930000
C      -45.78510000     -36.26170000     -68.09840000
H      -47.92940000     -35.81030000     -68.00900000
H      -45.70600000     -34.08460000     -71.33890000
H      -43.77940000     -36.57750000     -68.45240000
H      -45.86360000     -36.89230000     -67.26860000
C      -43.26790000     -35.20990000     -70.78480000
H      -43.61430000     -34.72640000     -71.73400000
H      -42.91390000     -36.20250000     -71.08360000
C      -48.19790000     -34.17450000     -70.17030000
H      -48.19690000     -34.04550000     -71.24800000
H      -49.01350000     -34.78240000     -69.83460000
S      -41.98690000     -34.02570000     -70.03150000
S      -48.50770000     -32.51750000     -69.39690000
C      -42.90160000     -32.37120000     -69.85770000
H      -43.91540000     -32.58320000     -69.57530000
H      -42.39290000     -31.81190000     -69.02270000
C      -46.84520000     -31.77050000     -69.50230000
H      -46.12220000     -32.60790000     -69.36550000
H      -46.66780000     -31.05700000     -68.66990000
C      -46.49800000     -30.97130000     -70.85020000
H      -47.36530000     -30.30010000     -70.95680000
H      -45.60020000     -30.39280000     -70.73140000
C      -42.91570000     -31.61160000     -71.17240000
H      -41.85710000     -31.44590000     -71.50950000
H      -43.33310000     -30.58760000     -71.02890000
C      -43.63480000     -32.21860000     -72.41550000
C      -42.82940000     -32.67390000     -73.41720000
C      -45.06420000     -32.14410000     -72.79300000
H      -41.73220000     -32.73330000     -73.40430000
C      -45.25410000     -32.69360000     -74.05610000
C      -46.34060000     -31.80300000     -72.14370000
C      -47.40950000     -32.17730000     -72.97950000
S      -43.80300000     -33.33630000     -74.77400000
S      -46.86060000     -33.03720000     -74.40200000
H      -48.45880000     -32.24240000     -72.85540000
