40
Properties=species:S:1:pos:R:3 #=T CELL(abcABC):=T 1.889726e+02=T 90.00000=T Traj:=T positionsangstrom=T Step:=T 0=T Bead:=T pbc="F F F"
C      -46.86640000     -35.75710000     -68.71260000
C      -46.70960000     -34.96160000     -69.87350000
C      -45.44920000     -34.89240000     -70.48630000
C      -44.29650000     -35.45400000     -69.91590000
C      -44.49840000     -36.17020000     -68.67650000
C      -45.73580000     -36.28270000     -68.09090000
H      -47.85190000     -35.77140000     -68.27330000
H      -45.26580000     -34.30090000     -71.39690000
H      -43.63460000     -36.51320000     -68.10660000
H      -45.85370000     -36.74280000     -67.11550000
C      -42.94470000     -35.37200000     -70.59710000
H      -43.13470000     -35.26220000     -71.68950000
H      -42.36990000     -36.25380000     -70.27940000
C      -47.94020000     -34.31220000     -70.61440000
H      -47.67000000     -34.43020000     -71.70150000
H      -48.78850000     -35.03090000     -70.57590000
S      -41.84100000     -33.99720000     -70.13310000
S      -48.46120000     -32.67290000     -69.98610000
C      -42.84290000     -32.52170000     -69.72770000
H      -43.78940000     -32.89360000     -69.36930000
H      -42.37730000     -31.92940000     -68.95910000
C      -46.89340000     -31.79010000     -69.65830000
H      -46.15080000     -32.54520000     -69.47890000
H      -46.95630000     -31.26920000     -68.68800000
C      -46.60140000     -30.73710000     -70.81260000
H      -47.41210000     -29.94390000     -70.78270000
H      -45.74270000     -30.05790000     -70.64030000
C      -43.12400000     -31.62040000     -70.97290000
H      -42.14160000     -31.36810000     -71.38470000
H      -43.73350000     -30.74480000     -70.74670000
C      -43.80900000     -32.42660000     -72.07040000
C      -43.08530000     -33.14200000     -73.00130000
C      -45.19040000     -32.17240000     -72.59300000
H      -42.06540000     -33.43720000     -72.97650000
C      -45.40830000     -32.71620000     -73.81810000
C      -46.38090000     -31.45210000     -72.13970000
C      -47.42640000     -31.46740000     -73.02350000
S      -44.06940000     -33.57150000     -74.43250000
S      -47.04760000     -32.43480000     -74.44020000
H      -48.41390000     -31.08700000     -72.89590000
