40
Properties=species:S:1:pos:R:3 #=T CELL(abcABC):=T 1.889726e+02=T 90.00000=T Traj:=T positionsangstrom=T Step:=T 0=T Bead:=T pbc="F F F"
C      -46.91270000     -35.75690000     -68.76650000
C      -46.69460000     -34.90250000     -69.87870000
C      -45.39080000     -34.84260000     -70.39600000
C      -44.32630000     -35.52150000     -69.85770000
C      -44.54720000     -36.22150000     -68.63680000
C      -45.80460000     -36.26850000     -68.09350000
H      -47.92360000     -36.06580000     -68.43450000
H      -45.30290000     -34.30250000     -71.29660000
H      -43.70350000     -36.85540000     -68.19900000
H      -45.81850000     -36.86090000     -67.15380000
C      -43.04400000     -35.41280000     -70.50530000
H      -43.30760000     -35.35650000     -71.57500000
H      -42.61950000     -36.35340000     -70.44290000
C      -47.92560000     -34.33650000     -70.53970000
H      -47.67990000     -34.06580000     -71.57640000
H      -48.83440000     -34.89780000     -70.35010000
S      -41.88250000     -34.09940000     -69.94320000
S      -48.36960000     -32.70770000     -69.78010000
C      -43.09430000     -32.64740000     -69.77280000
H      -44.05290000     -33.19830000     -69.62410000
H      -42.79340000     -32.13740000     -68.83500000
C      -46.76560000     -31.71970000     -69.71890000
H      -45.91350000     -32.36940000     -69.55300000
H      -46.96140000     -31.10200000     -68.79900000
C      -46.47780000     -30.73610000     -70.89730000
H      -47.26020000     -30.00550000     -70.97260000
H      -45.52980000     -30.33260000     -70.60830000
C      -43.16470000     -31.64150000     -70.95280000
H      -42.16420000     -31.07600000     -71.07240000
H      -43.80030000     -30.87070000     -70.54850000
C      -43.72680000     -32.13060000     -72.25730000
C      -43.07040000     -32.87480000     -73.18250000
C      -45.13860000     -32.01440000     -72.70360000
H      -42.07080000     -33.11970000     -73.09830000
C      -45.41180000     -32.65140000     -73.89820000
C      -46.36900000     -31.44260000     -72.19370000
C      -47.39070000     -31.55610000     -73.08270000
S      -44.04670000     -33.51050000     -74.55890000
S      -47.07560000     -32.55190000     -74.50840000
H      -48.41120000     -31.26720000     -72.77730000
