40
Properties=species:S:1:pos:R:3 #=T CELL(abcABC):=T 1.889726e+02=T 90.00000=T Traj:=T positionsangstrom=T Step:=T 0=T Bead:=T pbc="F F F"
C      -46.92760000     -34.89430000     -68.36430000
C      -46.94740000     -34.82170000     -69.79320000
C      -45.72560000     -35.10190000     -70.49200000
C      -44.56050000     -35.43670000     -69.82890000
C      -44.57680000     -35.46470000     -68.46070000
C      -45.72560000     -35.11360000     -67.70180000
H      -47.85820000     -34.66670000     -67.86690000
H      -45.69780000     -35.04850000     -71.57420000
H      -43.63820000     -35.67700000     -67.87920000
H      -45.70110000     -35.15140000     -66.67550000
C      -43.24860000     -35.50860000     -70.61510000
H      -43.50780000     -35.50170000     -71.67970000
H      -42.74630000     -36.46940000     -70.38200000
C      -48.22990000     -34.38090000     -70.53410000
H      -48.06240000     -34.29830000     -71.62700000
H      -48.96660000     -35.11400000     -70.19610000
S      -42.02420000     -34.13270000     -70.15830000
S      -48.77440000     -32.74050000     -69.99730000
C      -42.99800000     -32.54840000     -69.77240000
H      -44.06910000     -32.89250000     -69.58300000
H      -42.61600000     -32.11460000     -68.86360000
C      -47.17710000     -31.82740000     -69.79470000
H      -46.38280000     -32.52240000     -69.51090000
H      -47.29330000     -31.16870000     -68.92950000
C      -46.66480000     -31.03670000     -71.00360000
H      -47.39680000     -30.20010000     -71.20450000
H      -45.82720000     -30.38460000     -70.63440000
C      -43.08720000     -31.50510000     -70.92930000
H      -42.29630000     -30.84760000     -70.98600000
H      -43.91050000     -30.88520000     -70.57390000
C      -43.59400000     -32.03550000     -72.27910000
C      -42.75920000     -32.72180000     -73.13320000
C      -45.00210000     -32.21390000     -72.66770000
H      -41.70870000     -32.81840000     -73.07050000
C      -45.06630000     -32.90570000     -73.88280000
C      -46.30040000     -31.74750000     -72.23060000
C      -47.28530000     -32.15380000     -73.09220000
S      -43.55810000     -33.45420000     -74.49890000
S      -46.72720000     -33.09510000     -74.44520000
H      -48.31050000     -31.88870000     -72.88300000
