40
Properties=species:S:1:pos:R:3 #=T CELL(abcABC):=T 1.889726e+02=T 90.00000=T Traj:=T positionsangstrom=T Step:=T 0=T Bead:=T pbc="F F F"
C      -46.87330000     -35.20530000     -68.50430000
C      -46.69160000     -34.85620000     -69.85840000
C      -45.39220000     -34.83280000     -70.35810000
C      -44.30440000     -35.16930000     -69.55800000
C      -44.50360000     -35.59830000     -68.24510000
C      -45.78570000     -35.56940000     -67.74160000
H      -47.91920000     -35.32710000     -68.21150000
H      -45.31480000     -34.58600000     -71.35740000
H      -43.71790000     -35.84790000     -67.57030000
H      -45.96310000     -35.92030000     -66.72400000
C      -42.97370000     -35.15280000     -70.17300000
H      -43.00390000     -35.24160000     -71.25170000
H      -42.38150000     -35.94870000     -69.70590000
C      -47.96710000     -34.47520000     -70.68630000
H      -47.67080000     -34.35380000     -71.76130000
H      -48.75700000     -35.25130000     -70.43410000
S      -41.84620000     -33.61120000     -69.85410000
S      -48.60740000     -32.82720000     -70.09590000
C      -43.07750000     -32.29270000     -69.60860000
H      -43.90940000     -32.46120000     -68.91730000
H      -42.45140000     -31.46400000     -69.10540000
C      -47.07750000     -31.71640000     -69.97910000
H      -46.24230000     -32.29900000     -69.72330000
H      -47.25550000     -31.09030000     -69.07670000
C      -46.86110000     -30.79400000     -71.30130000
H      -47.74080000     -30.23870000     -71.43690000
H      -46.15910000     -30.07590000     -71.06120000
C      -43.47740000     -31.64460000     -70.94030000
H      -42.65110000     -31.03950000     -71.28440000
H      -44.26380000     -30.94820000     -70.68120000
C      -43.85780000     -32.52090000     -72.11420000
C      -43.00320000     -33.26250000     -72.89210000
C      -45.20840000     -32.38210000     -72.75630000
H      -42.08940000     -33.65570000     -72.61560000
C      -45.27250000     -33.07890000     -73.95490000
C      -46.45080000     -31.61430000     -72.48480000
C      -47.40190000     -31.92820000     -73.46140000
S      -43.75230000     -33.81010000     -74.34880000
S      -46.76660000     -32.93160000     -74.77590000
H      -48.43150000     -31.56170000     -73.49520000
