40
Properties=species:S:1:pos:R:3 #=T CELL(abcABC):=T 1.889726e+02=T 90.00000=T Traj:=T positionsangstrom=T Step:=T 0=T Bead:=T pbc="F F F"
C      -46.86080000     -35.40200000     -68.49480000
C      -46.66810000     -34.88170000     -69.79880000
C      -45.34460000     -34.88680000     -70.31540000
C      -44.25070000     -35.23930000     -69.50820000
C      -44.46340000     -35.65610000     -68.21160000
C      -45.74310000     -35.72400000     -67.63770000
H      -47.86220000     -35.38730000     -67.97200000
H      -45.20640000     -34.60810000     -71.36380000
H      -43.66460000     -36.06340000     -67.63450000
H      -45.85250000     -35.94440000     -66.53380000
C      -42.86780000     -35.18230000     -70.04530000
H      -42.93620000     -35.36460000     -71.11530000
H      -42.22110000     -35.98190000     -69.68580000
C      -47.80750000     -34.36930000     -70.69660000
H      -47.50430000     -34.28270000     -71.67370000
H      -48.68550000     -34.97840000     -70.77720000
S      -41.96920000     -33.59690000     -69.74170000
S      -48.50700000     -32.76930000     -70.07000000
C      -43.27000000     -32.29140000     -69.73210000
H      -44.20130000     -32.79170000     -69.57670000
H      -43.14000000     -31.65970000     -68.87970000
C      -46.98820000     -31.72450000     -70.09300000
H      -46.08570000     -32.32750000     -69.95920000
H      -47.04610000     -31.02500000     -69.21220000
C      -46.88390000     -30.83070000     -71.35930000
H      -47.81960000     -30.19480000     -71.58230000
H      -46.06710000     -30.00130000     -71.15720000
C      -43.42860000     -31.49320000     -71.08990000
H      -42.46250000     -30.95830000     -71.30860000
H      -44.15830000     -30.70880000     -70.94410000
C      -43.86170000     -32.31100000     -72.26750000
C      -42.98850000     -33.19880000     -72.79170000
C      -45.19020000     -32.19470000     -72.94110000
H      -41.97210000     -33.22040000     -72.60090000
C      -45.30190000     -33.07890000     -73.95730000
C      -46.44920000     -31.55300000     -72.58670000
C      -47.40840000     -31.85900000     -73.51490000
S      -43.79130000     -33.99410000     -74.19530000
S      -46.87710000     -32.91500000     -74.86880000
H      -48.36000000     -31.37540000     -73.70510000
