40
Properties=species:S:1:pos:R:3 #=T CELL(abcABC):=T 1.889726e+02=T 90.00000=T Traj:=T positionsangstrom=T Step:=T 0=T Bead:=T pbc="F F F"
C      -46.91790000     -35.00200000     -68.44820000
C      -46.81580000     -34.83940000     -69.87980000
C      -45.57920000     -35.07350000     -70.51260000
C      -44.44320000     -35.51290000     -69.78260000
C      -44.51990000     -35.40880000     -68.37620000
C      -45.72790000     -35.21980000     -67.73830000
H      -47.84630000     -34.79060000     -67.92340000
H      -45.54930000     -34.85550000     -71.54380000
H      -43.57220000     -35.60170000     -67.84010000
H      -45.73040000     -35.25100000     -66.65070000
C      -43.13920000     -35.49620000     -70.47880000
H      -43.15120000     -35.66200000     -71.52980000
H      -42.51570000     -36.30050000     -70.10940000
C      -48.01780000     -34.39250000     -70.66460000
H      -47.83800000     -34.42030000     -71.73230000
H      -48.84550000     -35.11940000     -70.59290000
S      -42.09090000     -33.98170000     -70.04240000
S      -48.58480000     -32.66840000     -70.25490000
C      -43.36560000     -32.63040000     -69.78940000
H      -44.36560000     -33.03350000     -69.68500000
H      -43.22370000     -32.17920000     -68.78450000
C      -47.11320000     -31.73640000     -69.89380000
H      -46.33090000     -32.45310000     -69.52830000
H      -47.30250000     -31.06400000     -69.05580000
C      -46.60280000     -30.89440000     -71.07030000
H      -47.37050000     -30.09210000     -71.37660000
H      -45.66970000     -30.40280000     -70.69670000
C      -43.15240000     -31.55850000     -70.84150000
H      -42.07940000     -31.38390000     -70.85940000
H      -43.51950000     -30.50140000     -70.48180000
C      -43.67820000     -32.12440000     -72.17060000
C      -42.75800000     -32.67130000     -73.05090000
C      -45.06450000     -32.25420000     -72.59090000
H      -41.74390000     -32.50950000     -73.00000000
C      -45.16920000     -33.03640000     -73.80460000
C      -46.35130000     -31.72990000     -72.24780000
C      -47.37900000     -32.05510000     -73.15360000
S      -43.67080000     -33.58850000     -74.39610000
S      -46.79670000     -33.11460000     -74.42650000
H      -48.41710000     -31.63650000     -73.05250000
