40
Properties=species:S:1:pos:R:3 #=T CELL(abcABC):=T 1.889726e+02=T 90.00000=T Traj:=T positionsangstrom=T Step:=T 0=T Bead:=T pbc="F F F"
C      -46.83320000     -35.42550000     -68.45350000
C      -46.67320000     -34.97500000     -69.74450000
C      -45.37030000     -34.96510000     -70.30590000
C      -44.22520000     -35.28670000     -69.44700000
C      -44.42400000     -35.77780000     -68.14050000
C      -45.77600000     -35.86290000     -67.67790000
H      -47.84780000     -35.53350000     -68.09830000
H      -45.13970000     -34.65950000     -71.30200000
H      -43.59240000     -35.93140000     -67.50710000
H      -46.02360000     -36.32880000     -66.70250000
C      -42.78810000     -35.13140000     -69.95210000
H      -42.81160000     -35.26170000     -71.06310000
H      -42.19360000     -35.97540000     -69.48630000
C      -47.77700000     -34.40120000     -70.57780000
H      -47.38560000     -34.33220000     -71.53490000
H      -48.64250000     -34.94910000     -70.40990000
S      -42.06860000     -33.49810000     -69.51460000
S      -48.29670000     -32.75180000     -70.11120000
C      -43.33640000     -32.19890000     -69.85190000
H      -44.24390000     -32.60690000     -69.58240000
H      -43.11890000     -31.51660000     -69.03660000
C      -46.88510000     -31.62140000     -70.11610000
H      -45.96990000     -32.13970000     -70.00650000
H      -46.94600000     -30.91190000     -69.20580000
C      -46.83050000     -30.79650000     -71.36800000
H      -47.90840000     -30.32720000     -71.47000000
H      -46.10920000     -29.93770000     -71.16130000
C      -43.24500000     -31.46290000     -71.16500000
H      -42.17600000     -31.30830000     -71.37060000
H      -43.73000000     -30.46950000     -71.06920000
C      -43.88780000     -32.23940000     -72.33810000
C      -43.08110000     -33.04980000     -73.13570000
C      -45.23750000     -32.16830000     -72.87110000
H      -41.97550000     -33.20370000     -73.08250000
C      -45.39230000     -33.11580000     -73.93740000
C      -46.56140000     -31.56730000     -72.61060000
C      -47.50470000     -31.90130000     -73.58750000
S      -43.93660000     -33.94600000     -74.32840000
S      -46.85180000     -33.04920000     -74.82980000
H      -48.52130000     -31.59920000     -73.66950000
