40
Properties=species:S:1:pos:R:3 #=T CELL(abcABC):=T 1.889726e+02=T 90.00000=T Traj:=T positionsangstrom=T Step:=T 0=T Bead:=T pbc="F F F"
C      -46.85530000     -35.15870000     -68.15740000
C      -47.07630000     -34.90240000     -69.50610000
C      -46.04310000     -35.07040000     -70.46090000
C      -44.73450000     -35.36900000     -70.07760000
C      -44.63310000     -35.85570000     -68.76950000
C      -45.60760000     -35.68260000     -67.81650000
H      -47.61720000     -35.01010000     -67.40280000
H      -46.29420000     -34.80000000     -71.47870000
H      -43.67450000     -36.22130000     -68.41060000
H      -45.39470000     -36.12900000     -66.82050000
C      -43.65170000     -35.21780000     -71.03480000
H      -44.08470000     -34.79000000     -71.93590000
H      -43.24780000     -36.25190000     -71.25260000
C      -48.42730000     -34.39130000     -69.87740000
H      -48.59250000     -34.72270000     -70.87880000
H      -49.14970000     -34.65920000     -69.15790000
S      -42.23890000     -34.15620000     -70.37360000
S      -48.65300000     -32.57640000     -69.82390000
C      -43.02840000     -32.57700000     -69.89670000
H      -43.98030000     -32.79030000     -69.44930000
H      -42.43390000     -32.10510000     -69.10910000
C      -46.96800000     -31.74790000     -69.72140000
H      -46.17820000     -32.52280000     -69.55070000
H      -47.04080000     -31.12530000     -68.90080000
C      -46.64210000     -30.96630000     -70.95130000
H      -47.46390000     -30.38130000     -71.26400000
H      -45.84530000     -30.23130000     -70.71730000
C      -42.91410000     -31.51650000     -70.99900000
H      -41.87870000     -31.25340000     -71.04010000
H      -43.36390000     -30.61030000     -70.61830000
C      -43.49580000     -31.91070000     -72.36600000
C      -42.65010000     -32.49770000     -73.28500000
C      -44.89700000     -32.01390000     -72.69620000
H      -41.58550000     -32.59660000     -73.08920000
C      -45.00990000     -32.72580000     -73.96580000
C      -46.19230000     -31.80670000     -72.09250000
C      -47.21200000     -32.44040000     -72.86590000
S      -43.49200000     -33.29270000     -74.62900000
S      -46.63660000     -33.20330000     -74.30230000
H      -48.24880000     -32.46560000     -72.54380000
