40
Properties=species:S:1:pos:R:3 #=T CELL(abcABC):=T 1.889726e+02=T 90.00000=T Traj:=T positionsangstrom=T Step:=T 0=T Bead:=T pbc="F F F"
C      -46.88580000     -34.94630000     -68.04600000
C      -46.91300000     -34.84400000     -69.41180000
C      -45.68740000     -35.11640000     -70.11420000
C      -44.49470000     -35.45800000     -69.48870000
C      -44.52150000     -35.72050000     -68.11680000
C      -45.65720000     -35.33630000     -67.40510000
H      -47.70560000     -34.82850000     -67.33430000
H      -45.63980000     -34.94300000     -71.13910000
H      -43.59560000     -35.96140000     -67.53970000
H      -45.62250000     -35.47510000     -66.29970000
C      -43.22330000     -35.53860000     -70.26250000
H      -43.43240000     -35.71650000     -71.34960000
H      -42.58010000     -36.35550000     -69.88740000
C      -48.03540000     -34.31940000     -70.20370000
H      -47.88500000     -34.33760000     -71.24570000
H      -48.87380000     -34.88230000     -69.91740000
S      -42.22650000     -33.93770000     -70.15980000
S      -48.54350000     -32.56040000     -69.78160000
C      -43.42710000     -32.59020000     -69.84780000
H      -44.40740000     -33.16730000     -69.79490000
H      -43.29800000     -32.15050000     -68.82740000
C      -46.97700000     -31.55110000     -70.09260000
H      -46.13280000     -32.19610000     -69.91030000
H      -47.08960000     -30.80770000     -69.32670000
C      -46.86230000     -30.90900000     -71.44970000
H      -47.89950000     -30.47300000     -71.73030000
H      -46.16300000     -30.06540000     -71.47330000
C      -43.59600000     -31.50180000     -70.96220000
H      -42.71430000     -30.82190000     -70.95580000
H      -44.44140000     -30.97280000     -70.67790000
C      -43.79160000     -32.08950000     -72.38040000
C      -42.77140000     -32.55110000     -73.13570000
C      -45.08340000     -32.23930000     -72.95990000
H      -41.78010000     -32.55780000     -72.81130000
C      -45.01470000     -32.97400000     -74.15880000
C      -46.44100000     -31.83020000     -72.64180000
C      -47.35930000     -32.38490000     -73.51240000
S      -43.36570000     -33.43310000     -74.50910000
S      -46.57010000     -33.30130000     -74.80630000
H      -48.44060000     -32.23450000     -73.49420000
