40
Properties=species:S:1:pos:R:3 #=T CELL(abcABC):=T 1.889726e+02=T 90.00000=T Traj:=T positionsangstrom=T Step:=T 0=T Bead:=T pbc="F F F"
C      -46.99540000     -35.27250000     -68.25330000
C      -47.05320000     -34.99180000     -69.59850000
C      -45.82240000     -34.92930000     -70.30600000
C      -44.59210000     -35.31090000     -69.65150000
C      -44.59080000     -35.82650000     -68.35230000
C      -45.79700000     -35.66510000     -67.67550000
H      -47.90250000     -35.07990000     -67.75090000
H      -45.80170000     -34.64070000     -71.33100000
H      -43.73860000     -36.24280000     -67.81540000
H      -45.71040000     -36.07180000     -66.67800000
C      -43.32310000     -35.02750000     -70.47120000
H      -43.38380000     -34.78740000     -71.49210000
H      -42.65200000     -35.90790000     -70.43590000
C      -48.30810000     -34.44800000     -70.23700000
H      -48.30670000     -34.55070000     -71.27780000
H      -49.16640000     -34.92240000     -69.80490000
S      -42.30160000     -33.66550000     -69.79630000
S      -48.53110000     -32.70360000     -69.69800000
C      -43.31730000     -32.18520000     -69.89280000
H      -44.37510000     -32.24680000     -69.69960000
H      -43.02480000     -31.51360000     -69.06550000
C      -46.90350000     -31.81530000     -70.04150000
H      -46.05250000     -32.54190000     -69.93050000
H      -46.73850000     -31.06310000     -69.27320000
C      -46.69830000     -30.95170000     -71.35440000
H      -47.56500000     -30.50900000     -71.82070000
H      -46.12320000     -30.13170000     -70.98980000
C      -43.18860000     -31.33940000     -71.17520000
H      -42.10340000     -31.09740000     -71.18490000
H      -43.86080000     -30.49260000     -71.05230000
C      -43.55450000     -32.04990000     -72.47420000
C      -42.64980000     -32.77190000     -73.22310000
C      -44.91690000     -32.20860000     -72.98710000
H      -41.63060000     -32.89520000     -72.92530000
C      -45.00400000     -33.09970000     -74.06050000
C      -46.18870000     -31.71250000     -72.55760000
C      -47.16710000     -32.08290000     -73.44480000
S      -43.45730000     -33.72320000     -74.49320000
S      -46.71010000     -33.26160000     -74.61970000
H      -48.20640000     -31.91580000     -73.18870000
