40
Properties=species:S:1:pos:R:3 #=T CELL(abcABC):=T 1.889726e+02=T 90.00000=T Traj:=T positionsangstrom=T Step:=T 0=T Bead:=T pbc="F F F"
C      -46.82110000     -33.31710000     -67.90200000
C      -46.02730000     -32.21430000     -68.15850000
C      -46.28490000     -31.33690000     -69.19280000
C      -47.44110000     -31.51520000     -69.99300000
C      -48.24900000     -32.63710000     -69.76020000
C      -48.00140000     -33.47010000     -68.65550000
H      -46.56920000     -33.99310000     -67.13140000
H      -45.59480000     -30.60730000     -69.58400000
H      -49.32900000     -32.71470000     -70.14920000
H      -48.51530000     -34.39840000     -68.55710000
C      -47.57230000     -30.60880000     -71.18420000
H      -46.62890000     -29.95870000     -71.25820000
H      -48.46660000     -29.99430000     -71.04530000
C      -44.77950000     -32.01080000     -67.30230000
H      -44.87240000     -31.09620000     -66.68860000
H      -44.73160000     -32.85140000     -66.58760000
S      -47.58790000     -31.80320000     -72.65940000
S      -43.18510000     -31.84240000     -68.26320000
C      -46.26380000     -31.19700000     -73.74970000
H      -46.55850000     -31.34990000     -74.76090000
H      -46.18660000     -30.12440000     -73.74410000
C      -43.04170000     -33.47390000     -69.18100000
H      -43.70370000     -34.32910000     -68.78940000
H      -41.97510000     -33.67480000     -69.17140000
C      -43.56180000     -33.24300000     -70.69780000
H      -44.58290000     -32.78240000     -70.73460000
H      -42.94570000     -32.50760000     -71.17460000
C      -44.93370000     -31.93170000     -73.47080000
H      -44.58950000     -31.69300000     -72.50570000
H      -44.13190000     -31.67080000     -74.15370000
C      -45.11860000     -33.46870000     -73.51840000
C      -45.79500000     -34.10590000     -74.56330000
C      -44.30560000     -34.48980000     -72.79680000
H      -46.42270000     -33.54770000     -75.27780000
C      -44.40390000     -35.70980000     -73.39550000
C      -43.57080000     -34.46300000     -71.51430000
C      -43.09660000     -35.70370000     -71.20780000
S      -45.52130000     -35.80150000     -74.76340000
S      -43.44960000     -36.87040000     -72.54930000
H      -42.40190000     -35.96260000     -70.42290000
