40
Properties=species:S:1:pos:R:3 #=T CELL(abcABC):=T 1.889726e+02=T 90.00000=T Traj:=T positionsangstrom=T Step:=T 0=T Bead:=T pbc="F F F"
C      -46.91950000     -35.34460000     -68.08480000
C      -47.05350000     -34.97460000     -69.44560000
C      -45.86350000     -34.91710000     -70.24080000
C      -44.58930000     -35.10100000     -69.66890000
C      -44.49830000     -35.43920000     -68.25520000
C      -45.63350000     -35.68480000     -67.53900000
H      -47.84070000     -35.57960000     -67.56040000
H      -45.93460000     -34.73240000     -71.31010000
H      -43.54250000     -35.51660000     -67.75620000
H      -45.50200000     -35.98870000     -66.50320000
C      -43.37000000     -35.06620000     -70.50210000
H      -43.65250000     -34.93320000     -71.55180000
H      -42.91150000     -36.05770000     -70.40960000
C      -48.33720000     -34.44450000     -70.05920000
H      -48.30950000     -34.64570000     -71.18350000
H      -49.27530000     -34.86120000     -69.60220000
S      -42.21590000     -33.75730000     -69.82460000
S      -48.52170000     -32.54220000     -69.65970000
C      -43.23860000     -32.16360000     -69.85300000
H      -44.30100000     -32.45260000     -69.60830000
H      -42.70260000     -31.68880000     -69.07780000
C      -46.84590000     -31.85230000     -70.06330000
H      -46.17720000     -32.71880000     -70.13130000
H      -46.61340000     -31.27030000     -69.17680000
C      -46.74710000     -31.13220000     -71.40100000
H      -47.74880000     -30.64750000     -71.56420000
H      -45.94710000     -30.35240000     -71.36510000
C      -43.13380000     -31.43060000     -71.17400000
H      -42.09290000     -31.19240000     -71.45340000
H      -43.60340000     -30.42450000     -71.09030000
C      -43.63550000     -32.13910000     -72.41480000
C      -42.76900000     -32.85620000     -73.19040000
C      -45.03360000     -32.34860000     -72.92130000
H      -41.65540000     -32.94550000     -73.20610000
C      -45.07830000     -33.02900000     -74.10870000
C      -46.36770000     -32.02510000     -72.55540000
C      -47.33970000     -32.44440000     -73.40750000
S      -43.50060000     -33.58330000     -74.56700000
S      -46.62430000     -33.16110000     -74.87550000
H      -48.34030000     -32.07190000     -73.37970000
