40
Properties=species:S:1:pos:R:3 #=T CELL(abcABC):=T 1.889726e+02=T 90.00000=T Traj:=T positionsangstrom=T Step:=T 0=T Bead:=T pbc="F F F"
C      -46.16700000     -35.19610000     -74.91560000
C      -45.73530000     -34.81330000     -73.63180000
C      -46.10490000     -33.52860000     -73.19200000
C      -46.87590000     -32.67160000     -73.99720000
C      -47.19070000     -33.04830000     -75.30310000
C      -46.88560000     -34.33230000     -75.74740000
H      -45.91030000     -36.19640000     -75.21910000
H      -45.82030000     -33.14610000     -72.18070000
H      -47.74880000     -32.34450000     -75.98000000
H      -46.98900000     -34.59040000     -76.78410000
C      -47.23400000     -31.28960000     -73.53520000
H      -48.03990000     -30.80210000     -74.09390000
H      -46.42410000     -30.66550000     -73.64360000
C      -44.77650000     -35.56710000     -72.78250000
H      -45.02100000     -35.55090000     -71.68030000
H      -44.73700000     -36.65890000     -72.93050000
S      -47.79030000     -31.28400000     -71.79050000
S      -43.04440000     -34.97750000     -73.00190000
C      -46.59450000     -30.12900000     -70.98040000
H      -46.21230000     -29.43040000     -71.73790000
H      -46.97440000     -29.49870000     -70.18060000
C      -42.97780000     -33.16030000     -72.61910000
H      -43.84500000     -32.60590000     -72.78100000
H      -42.20290000     -32.79210000     -73.27270000
C      -42.58930000     -32.92740000     -71.14530000
H      -41.57030000     -33.17570000     -71.01390000
H      -42.71600000     -31.83140000     -71.02940000
C      -45.30740000     -30.85690000     -70.45590000
H      -44.67720000     -30.14410000     -69.90490000
H      -44.72280000     -31.15380000     -71.28930000
C      -45.52920000     -32.11940000     -69.63230000
C      -46.62080000     -32.25080000     -68.82670000
C      -44.54320000     -33.20930000     -69.45790000
H      -47.40080000     -31.46020000     -68.62090000
C      -44.93060000     -34.04000000     -68.38320000
C      -43.30880000     -33.65970000     -70.06210000
C      -42.89730000     -34.83180000     -69.49160000
S      -46.43380000     -33.57170000     -67.74260000
S      -43.76660000     -35.33900000     -68.04010000
H      -41.85280000     -35.06380000     -69.61220000
