40
Properties=species:S:1:pos:R:3 #=T CELL(abcABC):=T 1.889726e+02=T 90.00000=T Traj:=T positionsangstrom=T Step:=T 0=T Bead:=T pbc="F F F"
C      -46.81850000     -33.94000000     -67.90500000
C      -46.30140000     -32.60260000     -67.97780000
C      -46.59500000     -31.77290000     -69.06280000
C      -47.49560000     -32.25790000     -69.98000000
C      -48.07300000     -33.50460000     -69.88260000
C      -47.77330000     -34.37770000     -68.81570000
H      -46.60600000     -34.61300000     -67.05640000
H      -46.14910000     -30.70500000     -69.15110000
H      -48.85130000     -33.78720000     -70.59100000
H      -48.11080000     -35.39720000     -68.80680000
C      -47.74650000     -31.44410000     -71.23380000
H      -47.27190000     -30.55440000     -71.08980000
H      -48.81940000     -31.14500000     -71.27880000
C      -45.24320000     -32.13560000     -67.03400000
H      -45.43480000     -31.18880000     -66.53200000
H      -45.08520000     -32.81110000     -66.16900000
S      -47.30430000     -32.38420000     -72.74610000
S      -43.60830000     -31.86890000     -67.92950000
C      -46.34550000     -31.22640000     -73.75150000
H      -46.72670000     -31.26400000     -74.79220000
H      -46.64450000     -30.22400000     -73.49280000
C      -43.70840000     -33.28120000     -69.08790000
H      -44.40890000     -34.02000000     -68.70450000
H      -42.79090000     -33.74140000     -69.00010000
C      -43.99540000     -32.87230000     -70.51970000
H      -44.78030000     -32.19150000     -70.63440000
H      -43.08030000     -32.40850000     -70.96500000
C      -44.85080000     -31.42290000     -73.60640000
H      -44.62320000     -31.26070000     -72.55770000
H      -44.31850000     -30.71540000     -74.27600000
C      -44.40520000     -32.90660000     -73.84950000
C      -44.30600000     -33.39690000     -75.12550000
C      -44.33880000     -33.99430000     -72.86860000
H      -44.09380000     -32.77610000     -75.99420000
C      -44.31530000     -35.25000000     -73.47050000
C      -44.21470000     -34.08180000     -71.39650000
C      -44.03760000     -35.37530000     -70.91330000
S      -44.16670000     -35.16820000     -75.19470000
S      -44.07110000     -36.50150000     -72.29900000
H      -43.84430000     -35.73660000     -69.92220000
