40
Properties=species:S:1:pos:R:3 #=T CELL(abcABC):=T 1.889726e+02=T 90.00000=T Traj:=T positionsangstrom=T Step:=T 0=T Bead:=T pbc="F F F"
C      -45.90920000     -35.29850000     -74.93890000
C      -45.63000000     -34.86660000     -73.60460000
C      -46.23910000     -33.69010000     -73.16020000
C      -47.02200000     -32.83890000     -73.98950000
C      -47.25660000     -33.24160000     -75.27880000
C      -46.72230000     -34.50250000     -75.70480000
H      -45.50570000     -36.21310000     -75.29490000
H      -46.11940000     -33.50980000     -72.05480000
H      -47.84350000     -32.60470000     -75.91750000
H      -47.03380000     -34.84050000     -76.70810000
C      -47.29660000     -31.40820000     -73.51900000
H      -47.99630000     -31.01630000     -74.28950000
H      -46.33560000     -30.80010000     -73.71280000
C      -44.66570000     -35.71340000     -72.74910000
H      -44.98440000     -35.61940000     -71.74340000
H      -44.71380000     -36.75480000     -73.09280000
S      -47.96980000     -31.23160000     -71.82980000
S      -42.96740000     -35.04980000     -73.15730000
C      -46.68840000     -30.14710000     -70.94040000
H      -46.41400000     -29.33760000     -71.66230000
H      -47.14370000     -29.92920000     -69.90010000
C      -43.13610000     -33.24840000     -72.57180000
H      -44.21780000     -32.93940000     -72.63980000
H      -42.72680000     -32.62110000     -73.41900000
C      -42.62720000     -32.75840000     -71.23980000
H      -41.50720000     -32.97240000     -71.13290000
H      -42.76460000     -31.69950000     -71.19610000
C      -45.52700000     -31.04560000     -70.71140000
H      -44.65700000     -30.36870000     -70.57520000
H      -45.36200000     -31.57480000     -71.69720000
C      -45.60890000     -32.06950000     -69.58720000
C      -46.57070000     -32.06380000     -68.60280000
C      -44.62690000     -33.13300000     -69.46520000
H      -47.28970000     -31.33830000     -68.29110000
C      -44.85620000     -33.94180000     -68.34120000
C      -43.31170000     -33.44430000     -70.02730000
C      -42.69840000     -34.50880000     -69.41080000
S      -46.32430000     -33.46970000     -67.58810000
S      -43.67800000     -35.25120000     -68.08130000
H      -41.81870000     -34.93490000     -69.80880000
