40
Properties=species:S:1:pos:R:3 #=T CELL(abcABC):=T 1.889726e+02=T 90.00000=T Traj:=T positionsangstrom=T Step:=T 0=T Bead:=T pbc="F F F"
C      -45.28810000     -35.05970000     -74.54390000
C      -45.57550000     -34.88870000     -73.19160000
C      -46.75730000     -34.29470000     -72.77230000
C      -47.62100000     -33.66330000     -73.71610000
C      -47.28040000     -33.84280000     -75.07880000
C      -46.10270000     -34.53300000     -75.52460000
H      -44.25460000     -35.54160000     -74.75290000
H      -46.96410000     -34.39860000     -71.73400000
H      -47.97370000     -33.32900000     -75.76860000
H      -45.82460000     -34.65170000     -76.57740000
C      -48.77350000     -32.79030000     -73.31390000
H      -49.65340000     -33.45060000     -73.17200000
H      -48.97110000     -32.15250000     -74.17620000
C      -44.70110000     -35.54340000     -72.19140000
H      -45.06920000     -35.29720000     -71.18090000
H      -44.75130000     -36.67170000     -72.21650000
S      -48.55740000     -31.80040000     -71.78250000
S      -42.90520000     -35.17440000     -72.52350000
C      -46.97590000     -30.96070000     -72.01570000
H      -46.93780000     -30.64660000     -73.06900000
H      -47.16190000     -30.00720000     -71.56100000
C      -42.61290000     -33.42580000     -72.76610000
H      -43.43330000     -32.97580000     -73.43600000
H      -41.66690000     -33.35920000     -73.34120000
C      -42.37000000     -32.68610000     -71.45410000
H      -41.28790000     -32.72960000     -71.22390000
H      -42.70370000     -31.65340000     -71.53050000
C      -45.56460000     -31.46870000     -71.70050000
H      -44.97240000     -30.60290000     -71.81910000
H      -45.26640000     -32.29140000     -72.40230000
C      -45.50830000     -31.93860000     -70.22020000
C      -46.52790000     -31.91830000     -69.31780000
C      -44.35310000     -32.67680000     -69.65580000
H      -47.45680000     -31.37590000     -69.37500000
C      -44.59450000     -33.16940000     -68.40830000
C      -43.08760000     -33.15820000     -70.22310000
C      -42.44130000     -33.97350000     -69.30970000
S      -46.19370000     -32.76810000     -67.86590000
S      -43.33380000     -34.27940000     -67.79000000
H      -41.53910000     -34.42960000     -69.29050000
