40
Properties=species:S:1:pos:R:3 #=T CELL(abcABC):=T 1.889726e+02=T 90.00000=T Traj:=T positionsangstrom=T Step:=T 0=T Bead:=T pbc="F F F"
C      -47.66700000     -35.22930000     -68.55600000
C      -47.35860000     -34.69190000     -69.82500000
C      -46.03860000     -34.74430000     -70.24740000
C      -45.01600000     -35.19610000     -69.47360000
C      -45.34300000     -35.57790000     -68.09800000
C      -46.65690000     -35.68560000     -67.71140000
H      -48.68450000     -35.30310000     -68.20570000
H      -45.91040000     -34.44690000     -71.24630000
H      -44.56750000     -35.94570000     -67.43190000
H      -46.93900000     -36.18680000     -66.72490000
C      -43.54000000     -35.16380000     -69.83380000
H      -43.53600000     -35.12190000     -70.90220000
H      -43.03910000     -36.02010000     -69.36920000
C      -48.38480000     -33.98440000     -70.68810000
H      -48.34010000     -34.20830000     -71.75210000
H      -49.38940000     -34.36710000     -70.38940000
S      -42.85760000     -33.60060000     -69.02280000
S      -48.61960000     -32.15410000     -70.47130000
C      -43.79650000     -32.15200000     -69.64650000
H      -44.81500000     -32.53060000     -69.73330000
H      -43.94560000     -31.49250000     -68.75060000
C      -46.93350000     -31.35330000     -70.49420000
H      -46.26530000     -32.07810000     -70.14870000
H      -46.93170000     -30.50670000     -69.87020000
C      -46.47360000     -30.88680000     -71.89980000
H      -47.30180000     -30.38300000     -72.42170000
H      -45.64010000     -30.09510000     -71.71830000
C      -43.13500000     -31.48580000     -70.92550000
H      -42.07410000     -31.42340000     -70.70250000
H      -43.48500000     -30.48680000     -70.94460000
C      -43.34170000     -32.26860000     -72.23000000
C      -42.32130000     -33.09460000     -72.70660000
C      -44.56900000     -32.37200000     -72.95700000
H      -41.25470000     -32.96760000     -72.38610000
C      -44.43560000     -33.29890000     -74.02110000
C      -45.97370000     -31.93280000     -72.87210000
C      -46.85710000     -32.58250000     -73.79430000
S      -42.75760000     -33.81100000     -74.29180000
S      -45.98930000     -33.80660000     -74.70540000
H      -47.80420000     -32.32010000     -74.03760000
