40
Properties=species:S:1:pos:R:3 #=T CELL(abcABC):=T 1.889726e+02=T 90.00000=T Traj:=T positionsangstrom=T Step:=T 0=T Bead:=T pbc="F F F"
C      -44.76040000     -29.43150000     -70.42920000
C      -44.02290000     -30.27810000     -71.28830000
C      -43.21390000     -31.26440000     -70.78460000
C      -43.04950000     -31.32800000     -69.37700000
C      -43.62090000     -30.34570000     -68.54320000
C      -44.57720000     -29.49090000     -69.01510000
H      -45.46830000     -28.76100000     -70.77990000
H      -42.70330000     -31.90740000     -71.45530000
H      -43.40280000     -30.38870000     -67.44420000
H      -45.16910000     -28.79180000     -68.47500000
C      -42.17330000     -32.36470000     -68.78670000
H      -41.80080000     -32.12410000     -67.82560000
H      -41.31940000     -32.48070000     -69.45210000
C      -44.29470000     -29.96190000     -72.74100000
H      -44.46160000     -28.89770000     -72.81280000
H      -43.53730000     -30.25550000     -73.41500000
S      -42.86840000     -34.16070000     -68.31500000
S      -45.84890000     -30.71430000     -73.39500000
C      -43.71890000     -34.68940000     -69.88060000
H      -43.60690000     -33.85980000     -70.55520000
H      -43.24310000     -35.51850000     -70.34960000
C      -46.95190000     -31.29100000     -72.06800000
H      -48.00070000     -31.14460000     -72.32930000
H      -46.83330000     -30.53740000     -71.28860000
C      -46.70420000     -32.60660000     -71.44160000
H      -45.74320000     -32.58920000     -71.01060000
H      -47.41600000     -32.62530000     -70.51710000
C      -45.13030000     -35.13210000     -69.53960000
H      -45.55880000     -34.20640000     -69.02760000
H      -45.18250000     -35.94380000     -68.73540000
C      -45.72500000     -35.75780000     -70.77920000
C      -45.59480000     -37.11370000     -70.99120000
C      -46.50960000     -35.15220000     -71.87990000
H      -45.08530000     -37.85090000     -70.29850000
C      -46.91440000     -36.13180000     -72.81620000
C      -47.00450000     -33.87290000     -72.28130000
C      -47.68880000     -33.93880000     -73.51910000
S      -46.34320000     -37.75970000     -72.47650000
S      -47.89650000     -35.53500000     -74.14550000
H      -48.16730000     -33.00130000     -73.86860000
