40
Properties=species:S:1:pos:R:3 #=T CELL(abcABC):=T 1.889726e+02=T 90.00000=T Traj:=T positionsangstrom=T Step:=T 0=T Bead:=T pbc="F F F"
C      -47.74630000     -33.36870000     -68.46050000
C      -47.32140000     -33.75170000     -69.72960000
C      -46.10170000     -34.37660000     -69.84260000
C      -45.21670000     -34.58520000     -68.76990000
C      -45.62500000     -34.11910000     -67.47720000
C      -46.80970000     -33.45100000     -67.37370000
H      -48.83660000     -33.05200000     -68.28450000
H      -45.70960000     -34.81700000     -70.79940000
H      -44.95230000     -34.18650000     -66.58470000
H      -47.21160000     -33.18000000     -66.35970000
C      -43.81220000     -35.01050000     -69.08540000
H      -43.58820000     -35.38850000     -70.12350000
H      -43.43220000     -35.62560000     -68.28120000
C      -48.18050000     -33.68390000     -70.98640000
H      -47.58720000     -34.13660000     -71.75840000
H      -49.11300000     -34.26330000     -70.78650000
S      -42.82220000     -33.44770000     -68.85390000
S      -48.56510000     -31.97060000     -71.56290000
C      -43.61920000     -32.02270000     -69.68890000
H      -44.72630000     -32.12470000     -69.75190000
H      -43.44010000     -31.07620000     -69.19530000
C      -47.05680000     -31.03410000     -71.33140000
H      -46.43070000     -31.58660000     -70.58660000
H      -47.09020000     -29.96890000     -70.92090000
C      -46.17930000     -30.95650000     -72.60430000
H      -46.61670000     -30.39770000     -73.45190000
H      -45.26600000     -30.31480000     -72.48870000
C      -43.06470000     -31.84360000     -71.16750000
H      -42.04010000     -31.49900000     -71.17060000
H      -43.64610000     -31.05180000     -71.62100000
C      -43.34240000     -32.97450000     -72.09030000
C      -42.39190000     -33.94500000     -72.34640000
C      -44.55390000     -33.09580000     -72.96850000
H      -41.46810000     -34.05150000     -71.80340000
C      -44.42580000     -34.16470000     -73.84280000
C      -45.80350000     -32.35880000     -73.21440000
C      -46.64060000     -33.10200000     -73.99770000
S      -42.92820000     -35.10290000     -73.55760000
S      -45.92750000     -34.50100000     -74.84130000
H      -47.57670000     -32.62730000     -74.39820000
