40
Properties=species:S:1:pos:R:3 #=T CELL(abcABC):=T 1.889726e+02=T 90.00000=T Traj:=T positionsangstrom=T Step:=T 0=T Bead:=T pbc="F F F"
C      -48.07030000     -34.12700000     -68.42190000
C      -47.52690000     -34.26870000     -69.68130000
C      -46.12370000     -34.46740000     -69.83830000
C      -45.29090000     -34.37150000     -68.72680000
C      -45.89450000     -34.29010000     -67.44040000
C      -47.26680000     -34.03620000     -67.31660000
H      -49.12440000     -33.93530000     -68.36430000
H      -45.79580000     -34.54360000     -70.84740000
H      -45.27050000     -34.09430000     -66.53000000
H      -47.68520000     -33.94270000     -66.30490000
C      -43.79750000     -34.71230000     -68.85990000
H      -43.50970000     -35.22900000     -69.78020000
H      -43.48170000     -35.32680000     -67.98720000
C      -48.39230000     -34.00420000     -70.92150000
H      -48.03590000     -34.57050000     -71.78840000
H      -49.44580000     -34.34250000     -70.68750000
S      -42.60190000     -33.17410000     -68.81240000
S      -48.53770000     -32.13790000     -71.29200000
C      -43.63810000     -31.96340000     -69.74090000
H      -44.69340000     -32.28570000     -69.83980000
H      -43.74770000     -31.00310000     -69.26960000
C      -46.82960000     -31.38370000     -71.20180000
H      -46.17300000     -32.14110000     -70.78310000
H      -46.92730000     -30.42560000     -70.67550000
C      -46.13740000     -30.97680000     -72.57130000
H      -46.89990000     -30.43440000     -73.11590000
H      -45.31470000     -30.28970000     -72.31880000
C      -43.14380000     -31.78310000     -71.12050000
H      -42.07570000     -31.53990000     -71.00320000
H      -43.64120000     -30.84270000     -71.43960000
C      -43.38580000     -32.92610000     -72.11340000
C      -42.54770000     -33.96240000     -72.21640000
C      -44.46540000     -32.94910000     -73.05840000
H      -41.67620000     -34.20980000     -71.63000000
C      -44.33230000     -34.02270000     -73.97830000
C      -45.62580000     -32.14200000     -73.36960000
C      -46.39600000     -32.70180000     -74.36080000
S      -43.05170000     -35.12150000     -73.51880000
S      -45.63260000     -34.06640000     -75.24240000
H      -46.97010000     -31.98040000     -74.88400000
