40
Properties=species:S:1:pos:R:3 #=T CELL(abcABC):=T 1.889726e+02=T 90.00000=T Traj:=T positionsangstrom=T Step:=T 0=T Bead:=T pbc="F F F"
C      -41.95520000     -35.25180000     -71.85330000
C      -43.18330000     -35.56300000     -72.52300000
C      -44.17390000     -36.28160000     -71.86610000
C      -44.07890000     -36.51880000     -70.45830000
C      -42.86780000     -36.13580000     -69.78780000
C      -41.77590000     -35.57980000     -70.48380000
H      -41.16830000     -34.67920000     -72.35460000
H      -45.13890000     -36.40700000     -72.33130000
H      -42.65000000     -36.29900000     -68.73790000
H      -40.87050000     -35.52170000     -69.91420000
C      -45.13450000     -37.29520000     -69.77000000
H      -44.53200000     -37.94200000     -69.12250000
H      -45.54900000     -37.95850000     -70.47630000
C      -43.49150000     -35.15030000     -73.95630000
H      -42.77630000     -35.75520000     -74.60950000
H      -44.47330000     -35.44430000     -74.23470000
S      -46.49890000     -36.25770000     -69.04230000
S      -43.03980000     -33.41160000     -74.38750000
C      -46.04840000     -34.53260000     -69.50070000
H      -46.45250000     -33.86530000     -68.77940000
H      -44.97090000     -34.40960000     -69.57240000
C      -44.27200000     -32.36740000     -73.50770000
H      -45.31380000     -32.66110000     -73.79510000
H      -44.12060000     -31.38680000     -73.84970000
C      -44.09570000     -32.31240000     -71.96550000
H      -44.16990000     -33.30160000     -71.58960000
H      -43.10090000     -32.04970000     -71.66180000
C      -46.67400000     -34.20870000     -70.90540000
H      -47.40060000     -34.98630000     -71.17820000
H      -45.85920000     -34.33740000     -71.60920000
C      -47.31660000     -32.81580000     -71.02000000
C      -48.66000000     -32.57960000     -70.89000000
C      -46.49410000     -31.61260000     -71.17640000
H      -49.52790000     -33.25640000     -70.85900000
C      -47.21880000     -30.44650000     -70.95560000
C      -45.10480000     -31.31900000     -71.45320000
C      -44.80430000     -30.00690000     -71.35560000
S      -48.91880000     -30.84580000     -70.62340000
S      -46.26220000     -29.00600000     -71.03680000
H      -43.85300000     -29.51060000     -71.50990000
