40
Properties=species:S:1:pos:R:3 #=T CELL(abcABC):=T 1.889726e+02=T 90.00000=T Traj:=T positionsangstrom=T Step:=T 0=T Bead:=T pbc="F F F"
C      -48.44810000     -33.47540000     -68.29560000
C      -47.83940000     -33.59700000     -69.58940000
C      -46.53180000     -33.94550000     -69.73170000
C      -45.63120000     -33.89930000     -68.62170000
C      -46.22870000     -33.60360000     -67.36890000
C      -47.59640000     -33.44860000     -67.19310000
H      -49.54800000     -33.48110000     -68.11980000
H      -46.19160000     -34.23240000     -70.69320000
H      -45.57540000     -33.35280000     -66.55370000
H      -48.04260000     -33.29580000     -66.18000000
C      -44.28470000     -34.59850000     -68.80110000
H      -44.41020000     -35.05840000     -69.79840000
H      -44.10930000     -35.36480000     -68.03420000
C      -48.62300000     -33.56370000     -70.81610000
H      -48.41450000     -34.41990000     -71.50890000
H      -49.67570000     -33.67550000     -70.56720000
S      -42.87960000     -33.39380000     -68.86920000
S      -48.43690000     -32.04900000     -71.95570000
C      -43.41700000     -31.92710000     -69.96270000
H      -44.49900000     -31.97820000     -70.02910000
H      -43.24850000     -30.98830000     -69.46890000
C      -46.93500000     -31.13820000     -71.47890000
H      -46.57260000     -31.56610000     -70.49060000
H      -47.26510000     -30.11190000     -71.26490000
C      -45.80890000     -31.08920000     -72.60270000
H      -46.38030000     -30.49100000     -73.34420000
H      -44.96960000     -30.38320000     -72.39850000
C      -42.62420000     -31.92870000     -71.33660000
H      -41.54320000     -31.75980000     -71.04260000
H      -42.94190000     -31.06650000     -71.90270000
C      -42.97730000     -33.13980000     -72.22640000
C      -42.11360000     -34.21260000     -72.41620000
C      -44.21070000     -33.26740000     -72.93090000
H      -41.07660000     -34.23490000     -72.12710000
C      -44.27960000     -34.51950000     -73.58690000
C      -45.33760000     -32.41740000     -73.27280000
C      -46.18780000     -33.06310000     -74.16280000
S      -42.77770000     -35.41660000     -73.45590000
S      -45.61530000     -34.58020000     -74.76090000
H      -47.13440000     -32.63780000     -74.60190000
