40
Properties=species:S:1:pos:R:3 #=T CELL(abcABC):=T 1.889726e+02=T 90.00000=T Traj:=T positionsangstrom=T Step:=T 0=T Bead:=T pbc="F F F"
C      -47.79500000     -32.60000000     -67.77120000
C      -46.43340000     -32.37150000     -68.04350000
C      -46.02970000     -31.47350000     -68.99900000
C      -46.93360000     -30.80540000     -69.76260000
C      -48.28100000     -31.04880000     -69.55590000
C      -48.73090000     -31.95100000     -68.58880000
H      -48.05990000     -33.48990000     -67.10320000
H      -45.05150000     -31.15950000     -69.05730000
H      -49.03250000     -30.68040000     -70.30760000
H      -49.72860000     -32.18080000     -68.39440000
C      -46.47550000     -29.85850000     -70.85490000
H      -45.52730000     -29.36490000     -70.51530000
H      -47.20000000     -29.13210000     -71.22280000
C      -45.44850000     -33.17540000     -67.16270000
H      -44.46700000     -32.70590000     -67.12080000
H      -45.82360000     -33.43590000     -66.21320000
S      -45.88130000     -30.94540000     -72.30740000
S      -45.20540000     -34.89810000     -67.85480000
C      -47.26500000     -32.11580000     -72.57630000
H      -48.09400000     -31.87490000     -71.83590000
H      -47.77460000     -32.00150000     -73.53220000
C      -44.50700000     -34.37000000     -69.56780000
H      -43.40260000     -34.30210000     -69.50840000
H      -45.13740000     -33.47760000     -69.78070000
C      -44.99170000     -35.50010000     -70.53150000
H      -44.73110000     -36.42580000     -70.04630000
H      -46.00400000     -35.39790000     -70.70070000
C      -46.78240000     -33.62280000     -72.59640000
H      -47.68780000     -34.14780000     -72.98870000
H      -46.69250000     -33.81850000     -71.53360000
C      -45.52750000     -33.73530000     -73.37380000
C      -45.24110000     -33.08430000     -74.55760000
C      -44.44270000     -34.61380000     -72.95080000
H      -45.79430000     -32.28070000     -75.10970000
C      -43.40490000     -34.61790000     -73.85260000
C      -44.12240000     -35.54230000     -71.80650000
C      -42.96600000     -36.23130000     -72.00140000
S      -43.77960000     -33.67400000     -75.29570000
S      -42.13130000     -35.81800000     -73.58290000
H      -42.55460000     -36.93060000     -71.29110000
