40
Properties=species:S:1:pos:R:3 #=T CELL(abcABC):=T 1.889726e+02=T 90.00000=T Traj:=T positionsangstrom=T Step:=T 0=T Bead:=T pbc="F F F"
C      -42.08460000     -35.10470000     -71.77780000
C      -43.27600000     -35.49300000     -72.38940000
C      -44.24040000     -36.21640000     -71.68230000
C      -43.97610000     -36.68180000     -70.39630000
C      -42.69850000     -36.32680000     -69.80920000
C      -41.80680000     -35.55480000     -70.49670000
H      -41.32910000     -34.54720000     -72.37170000
H      -45.10160000     -36.62730000     -72.19910000
H      -42.46080000     -36.65670000     -68.77610000
H      -40.86680000     -35.29820000     -70.00720000
C      -44.97340000     -37.38130000     -69.61530000
H      -44.55980000     -37.71240000     -68.65170000
H      -45.44880000     -38.25530000     -70.13850000
C      -43.51140000     -35.14370000     -73.86240000
H      -42.95650000     -35.78370000     -74.61290000
H      -44.57200000     -35.36390000     -74.09860000
S      -46.52530000     -36.35450000     -69.10970000
S      -43.13000000     -33.45950000     -74.44930000
C      -46.25360000     -34.60280000     -69.71030000
H      -46.80710000     -33.99700000     -69.00620000
H      -45.16120000     -34.29170000     -69.51890000
C      -44.25370000     -32.41740000     -73.50610000
H      -45.23230000     -32.87850000     -73.47760000
H      -44.28910000     -31.47650000     -74.14180000
C      -43.94260000     -32.15400000     -71.98920000
H      -44.01960000     -33.11660000     -71.46230000
H      -42.95780000     -31.63720000     -71.81040000
C      -46.66970000     -34.22200000     -71.08860000
H      -47.41980000     -34.95250000     -71.36330000
H      -45.86570000     -34.18100000     -71.84920000
C      -47.23320000     -32.81320000     -70.99540000
C      -48.53530000     -32.56720000     -70.66690000
C      -46.38130000     -31.59480000     -71.14370000
H      -49.31610000     -33.29210000     -70.39020000
C      -47.16650000     -30.45430000     -70.85770000
C      -45.00670000     -31.19870000     -71.46880000
C      -44.87080000     -29.85590000     -71.38380000
S      -48.87890000     -30.86870000     -70.73860000
S      -46.34890000     -28.92590000     -71.03510000
H      -43.95620000     -29.24760000     -71.61130000
