40
Properties=species:S:1:pos:R:3 #=T CELL(abcABC):=T 1.889726e+02=T 90.00000=T Traj:=T positionsangstrom=T Step:=T 0=T Bead:=T pbc="F F F"
C      -48.12950000     -33.63050000     -68.61860000
C      -47.56430000     -33.84900000     -69.88400000
C      -46.18290000     -34.22830000     -69.98900000
C      -45.43620000     -34.31170000     -68.83960000
C      -45.94140000     -33.82960000     -67.60510000
C      -47.33620000     -33.60730000     -67.47570000
H      -49.18490000     -33.48150000     -68.61240000
H      -45.87330000     -34.50120000     -70.98650000
H      -45.25210000     -33.54160000     -66.82510000
H      -47.84150000     -33.31320000     -66.48780000
C      -44.01970000     -34.93210000     -68.93340000
H      -44.12910000     -35.70560000     -69.66480000
H      -43.72150000     -35.49340000     -68.05470000
C      -48.27500000     -33.59980000     -71.19720000
H      -47.73810000     -34.01140000     -72.04630000
H      -49.23550000     -34.05060000     -71.17000000
S      -42.58930000     -33.72740000     -69.23190000
S      -48.56140000     -31.77230000     -71.43870000
C      -43.25810000     -32.12280000     -69.79260000
H      -44.33730000     -32.15920000     -69.65110000
H      -42.90930000     -31.30270000     -69.11140000
C      -46.87590000     -30.94880000     -71.44250000
H      -46.15560000     -31.50420000     -70.71190000
H      -47.06470000     -29.92160000     -71.08400000
C      -46.11810000     -30.88670000     -72.79170000
H      -46.60850000     -30.36320000     -73.64720000
H      -45.14830000     -30.44550000     -72.63730000
C      -42.95160000     -31.64790000     -71.23180000
H      -41.88590000     -31.32770000     -71.27080000
H      -43.42180000     -30.73140000     -71.55670000
C      -43.23480000     -32.74630000     -72.22040000
C      -42.29640000     -33.77240000     -72.39280000
C      -44.45420000     -33.03310000     -72.86580000
H      -41.32010000     -33.83550000     -72.05980000
C      -44.45740000     -34.33690000     -73.46650000
C      -45.72800000     -32.34930000     -73.28490000
C      -46.48920000     -33.15340000     -74.10430000
S      -42.93610000     -35.08680000     -73.23480000
S      -45.81700000     -34.77930000     -74.42400000
H      -47.47640000     -32.95100000     -74.45640000
