40
Properties=species:S:1:pos:R:3 #=T CELL(abcABC):=T 1.889726e+02=T 90.00000=T Traj:=T positionsangstrom=T Step:=T 0=T Bead:=T pbc="F F F"
C      -48.24080000     -33.18920000     -68.65080000
C      -47.66470000     -33.69570000     -69.81280000
C      -46.31580000     -34.07590000     -69.65980000
C      -45.61530000     -34.12230000     -68.46870000
C      -46.14900000     -33.39880000     -67.36780000
C      -47.50000000     -32.97990000     -67.51220000
H      -49.24790000     -32.82450000     -68.74400000
H      -45.88910000     -34.57930000     -70.56110000
H      -45.62080000     -33.29530000     -66.45490000
H      -48.02500000     -32.40240000     -66.73650000
C      -44.14140000     -34.61990000     -68.65430000
H      -44.04700000     -35.43500000     -69.37090000
H      -43.98510000     -34.94150000     -67.60960000
C      -48.40190000     -33.80110000     -71.12330000
H      -47.87480000     -34.47210000     -71.72010000
H      -49.49000000     -34.03770000     -71.06520000
S      -42.97020000     -33.15910000     -68.58500000
S      -48.41290000     -32.20610000     -72.05240000
C      -43.59690000     -32.09660000     -69.80370000
H      -44.63150000     -32.37470000     -69.98720000
H      -43.59790000     -31.06210000     -69.40820000
C      -46.87120000     -31.21990000     -71.64450000
H      -46.42760000     -31.75020000     -70.79140000
H      -47.21580000     -30.22000000     -71.23250000
C      -45.80410000     -31.07520000     -72.69120000
H      -46.10370000     -30.31840000     -73.47780000
H      -44.90260000     -30.67900000     -72.12390000
C      -42.77580000     -32.05840000     -71.13160000
H      -41.72310000     -31.93630000     -70.95330000
H      -43.07760000     -31.08980000     -71.61770000
C      -43.08880000     -33.17990000     -72.13800000
C      -42.25920000     -34.26620000     -72.22880000
C      -44.19450000     -33.19890000     -73.04640000
H      -41.37500000     -34.57480000     -71.65180000
C      -44.26540000     -34.40730000     -73.73430000
C      -45.39970000     -32.42960000     -73.23400000
C      -46.24110000     -32.98970000     -74.18940000
S      -42.89860000     -35.43400000     -73.41330000
S      -45.67360000     -34.63730000     -74.73180000
H      -47.09400000     -32.56670000     -74.55720000
