40
Properties=species:S:1:pos:R:3 #=T CELL(abcABC):=T 1.889726e+02=T 90.00000=T Traj:=T positionsangstrom=T Step:=T 0=T Bead:=T pbc="F F F"
C      -48.26660000     -33.82240000     -69.22180000
C      -47.33050000     -33.98390000     -70.27080000
C      -46.00550000     -34.14800000     -69.87000000
C      -45.57290000     -34.21750000     -68.53180000
C      -46.56950000     -33.98390000     -67.55520000
C      -47.88410000     -33.80710000     -67.89330000
H      -49.35140000     -33.53680000     -69.37610000
H      -45.23750000     -34.31290000     -70.54720000
H      -46.25890000     -34.10520000     -66.43340000
H      -48.61710000     -33.71030000     -67.10650000
C      -44.12370000     -34.28270000     -68.25780000
H      -43.56180000     -34.99620000     -68.85970000
H      -43.83610000     -34.59010000     -67.24170000
C      -47.66940000     -33.86080000     -71.75600000
H      -46.62250000     -33.91120000     -72.33070000
H      -48.36850000     -34.68630000     -72.06190000
S      -43.18050000     -32.66210000     -68.42370000
S      -48.51330000     -32.26040000     -72.09160000
C      -43.91520000     -31.57900000     -69.76930000
H      -44.89490000     -31.96360000     -69.91150000
H      -43.99590000     -30.62720000     -69.28970000
C      -46.99760000     -31.09920000     -71.97960000
H      -46.47820000     -31.33710000     -71.03760000
H      -47.40040000     -30.13100000     -71.55210000
C      -46.01760000     -31.09400000     -73.12630000
H      -46.44210000     -30.72670000     -74.12800000
H      -45.13670000     -30.44480000     -72.92650000
C      -43.18720000     -31.53330000     -71.13190000
H      -42.10770000     -31.25440000     -70.97480000
H      -43.51980000     -30.80300000     -71.88260000
C      -43.27190000     -32.90800000     -71.83830000
C      -42.32370000     -33.89360000     -71.77510000
C      -44.30700000     -33.19980000     -72.86220000
H      -41.44110000     -33.87520000     -71.11240000
C      -44.16270000     -34.52960000     -73.40710000
C      -45.43090000     -32.52160000     -73.46590000
C      -45.99800000     -33.19580000     -74.50330000
S      -42.72930000     -35.30060000     -72.73770000
S      -45.34740000     -34.91260000     -74.61480000
H      -46.88010000     -32.91870000     -75.08040000
