40
Properties=species:S:1:pos:R:3 #=T CELL(abcABC):=T 1.889726e+02=T 90.00000=T Traj:=T positionsangstrom=T Step:=T 0=T Bead:=T pbc="F F F"
C      -46.29880000     -36.15750000     -74.51620000
C      -45.99210000     -36.45100000     -73.16430000
C      -46.74760000     -35.80150000     -72.13730000
C      -47.83370000     -35.00880000     -72.47920000
C      -48.25920000     -34.84860000     -73.80460000
C      -47.42990000     -35.38830000     -74.84070000
H      -45.63160000     -36.47330000     -75.35750000
H      -46.44780000     -35.80080000     -71.05680000
H      -49.08430000     -34.26710000     -74.05260000
H      -47.63000000     -35.23480000     -75.89780000
C      -48.57610000     -34.36560000     -71.36310000
H      -48.20690000     -34.51470000     -70.36800000
H      -49.54330000     -34.84240000     -71.33350000
C      -44.69110000     -37.18680000     -72.80240000
H      -44.70640000     -37.40470000     -71.77170000
H      -44.60210000     -38.01860000     -73.50180000
S      -48.87250000     -32.59610000     -71.53360000
S      -43.20680000     -36.07890000     -73.02170000
C      -47.31330000     -32.15800000     -72.37960000
H      -47.37050000     -32.60370000     -73.43600000
H      -47.34860000     -31.06610000     -72.47770000
C      -43.16080000     -35.07490000     -71.40500000
H      -42.37560000     -35.35800000     -70.62590000
H      -44.16560000     -35.17340000     -70.92660000
C      -42.73320000     -33.62240000     -71.69280000
H      -41.62470000     -33.66400000     -71.78230000
H      -43.06140000     -33.25440000     -72.65320000
C      -46.03400000     -32.62470000     -71.66660000
H      -45.18590000     -32.57900000     -72.39860000
H      -46.25690000     -33.66580000     -71.40480000
C      -45.55420000     -31.74920000     -70.54430000
C      -46.14940000     -30.78610000     -69.78490000
C      -44.18610000     -31.89450000     -70.07730000
H      -47.12220000     -30.32310000     -69.90290000
C      -43.87990000     -31.14840000     -68.89030000
C      -43.00810000     -32.60080000     -70.53530000
C      -41.87350000     -32.30140000     -69.80880000
S      -45.22780000     -30.08510000     -68.49420000
S      -42.17180000     -31.16240000     -68.46570000
H      -40.87590000     -32.39950000     -70.10470000
