40
Properties=species:S:1:pos:R:3 #=T CELL(abcABC):=T 1.889726e+02=T 90.00000=T Traj:=T positionsangstrom=T Step:=T 0=T Bead:=T pbc="F F F"
C      -47.72140000     -32.34610000     -67.92510000
C      -46.35860000     -32.32240000     -68.32820000
C      -45.95240000     -31.70350000     -69.55010000
C      -46.96580000     -30.91170000     -70.21600000
C      -48.26030000     -30.74290000     -69.62830000
C      -48.60930000     -31.57200000     -68.59310000
H      -47.79450000     -33.03000000     -67.05900000
H      -45.00920000     -31.64250000     -69.96810000
H      -48.95320000     -30.03160000     -70.10830000
H      -49.54820000     -31.40440000     -68.18210000
C      -46.57540000     -30.08670000     -71.38940000
H      -45.54220000     -29.75080000     -71.39570000
H      -47.20610000     -29.17010000     -71.35160000
C      -45.39610000     -32.97570000     -67.34190000
H      -44.40880000     -32.59710000     -67.41060000
H      -45.75570000     -32.80610000     -66.31740000
S      -46.65520000     -30.96230000     -73.05510000
S      -45.15490000     -34.77050000     -67.56380000
C      -47.52740000     -32.49120000     -72.70540000
H      -48.41740000     -32.34180000     -72.05920000
H      -47.88390000     -32.74070000     -73.67450000
C      -44.09470000     -34.68530000     -69.07250000
H      -43.11510000     -34.99640000     -68.72500000
H      -43.94860000     -33.69900000     -69.41540000
C      -44.56350000     -35.62320000     -70.24760000
H      -44.39510000     -36.71450000     -69.93260000
H      -45.62270000     -35.48450000     -70.42320000
C      -46.66620000     -33.57850000     -72.16940000
H      -47.15950000     -34.52010000     -71.85480000
H      -46.10160000     -33.37520000     -71.22560000
C      -45.51380000     -34.02540000     -73.09290000
C      -45.45890000     -33.81160000     -74.46440000
C      -44.32090000     -34.67380000     -72.69910000
H      -46.20370000     -33.12740000     -74.85570000
C      -43.47460000     -34.76360000     -73.75750000
C      -43.79430000     -35.25560000     -71.50330000
C      -42.52020000     -35.61480000     -71.65490000
S      -44.02700000     -34.18590000     -75.29460000
S      -41.88400000     -35.22450000     -73.25040000
H      -41.80050000     -35.93530000     -70.93200000
