40
Properties=species:S:1:pos:R:3 #=T CELL(abcABC):=T 1.889726e+02=T 90.00000=T Traj:=T positionsangstrom=T Step:=T 0=T Bead:=T pbc="F F F"
C      -48.15620000     -33.67380000     -68.86970000
C      -47.37510000     -33.88880000     -70.03600000
C      -45.99640000     -34.08310000     -69.82800000
C      -45.36220000     -34.04880000     -68.52290000
C      -46.25350000     -33.86640000     -67.42770000
C      -47.63960000     -33.71470000     -67.62050000
H      -49.22570000     -33.58070000     -68.95760000
H      -45.50540000     -34.41440000     -70.77550000
H      -46.06740000     -33.86960000     -66.39300000
H      -48.26800000     -33.63680000     -66.72500000
C      -43.89780000     -34.36840000     -68.44210000
H      -43.77320000     -35.02870000     -69.33430000
H      -43.74160000     -34.99520000     -67.56320000
C      -48.00330000     -34.07370000     -71.36440000
H      -47.46330000     -34.59850000     -72.09870000
H      -48.91540000     -34.68490000     -71.30810000
S      -42.81400000     -32.94510000     -68.63120000
S      -48.42450000     -32.43820000     -72.18490000
C      -43.65780000     -31.64150000     -69.61920000
H      -44.76200000     -31.69590000     -69.56200000
H      -43.36990000     -30.61930000     -69.34650000
C      -46.90430000     -31.43930000     -71.91730000
H      -46.14360000     -31.90770000     -71.16380000
H      -47.19050000     -30.47100000     -71.41580000
C      -46.06610000     -31.04760000     -73.16420000
H      -46.61260000     -30.58830000     -74.00530000
H      -45.34110000     -30.22960000     -72.81130000
C      -43.22410000     -31.52010000     -71.13610000
H      -42.19780000     -31.11520000     -71.25070000
H      -44.02260000     -30.81310000     -71.49870000
C      -43.36610000     -32.77220000     -71.97410000
C      -42.63350000     -33.86710000     -71.61980000
C      -44.42520000     -33.05370000     -73.00680000
H      -41.76870000     -33.99320000     -71.00830000
C      -44.25700000     -34.30860000     -73.55080000
C      -45.47770000     -32.35090000     -73.70620000
C      -46.07260000     -33.09230000     -74.65460000
S      -43.15800000     -35.27590000     -72.61360000
S      -45.44270000     -34.76110000     -74.75860000
H      -46.75400000     -32.75300000     -75.43600000
