40
Properties=species:S:1:pos:R:3 #=T CELL(abcABC):=T 1.889726e+02=T 90.00000=T Traj:=T positionsangstrom=T Step:=T 0=T Bead:=T pbc="F F F"
C      -46.25830000     -36.25490000     -74.67210000
C      -45.95290000     -36.38680000     -73.28130000
C      -46.86510000     -35.90350000     -72.34040000
C      -48.01980000     -35.17200000     -72.75240000
C      -48.33610000     -35.03090000     -74.11360000
C      -47.44470000     -35.55010000     -75.05350000
H      -45.53970000     -36.65390000     -75.42740000
H      -46.60870000     -36.19660000     -71.33750000
H      -49.23220000     -34.45150000     -74.31590000
H      -47.76980000     -35.57240000     -76.10600000
C      -49.00570000     -34.50750000     -71.86190000
H      -48.95550000     -34.99810000     -70.79860000
H      -50.02510000     -34.78870000     -72.14910000
C      -44.70360000     -37.03750000     -72.69100000
H      -44.90300000     -37.22980000     -71.57320000
H      -44.38460000     -38.01760000     -73.08340000
S      -48.87910000     -32.62940000     -71.52440000
S      -43.15730000     -35.95730000     -72.75100000
C      -47.29980000     -32.04270000     -72.20110000
H      -47.21870000     -32.18570000     -73.27890000
H      -47.44380000     -30.94150000     -72.10820000
C      -43.55320000     -34.81470000     -71.34380000
H      -43.21990000     -35.31890000     -70.46880000
H      -44.60890000     -34.77130000     -71.27060000
C      -42.85570000     -33.47280000     -71.64150000
H      -41.81530000     -33.73480000     -71.91230000
H      -43.41350000     -32.98670000     -72.43380000
C      -46.03240000     -32.69570000     -71.62660000
H      -45.26960000     -32.91010000     -72.41780000
H      -46.09490000     -33.71210000     -71.29060000
C      -45.43120000     -31.88350000     -70.50020000
C      -46.12990000     -31.01180000     -69.70890000
C      -44.01920000     -31.84890000     -70.03090000
H      -47.17810000     -30.82980000     -69.66440000
C      -43.67710000     -30.91780000     -69.05820000
C      -42.84460000     -32.53280000     -70.42790000
C      -41.72500000     -32.30090000     -69.62690000
S      -45.08690000     -30.08510000     -68.51390000
S      -42.09250000     -31.13260000     -68.32970000
H      -40.76360000     -32.76430000     -69.63500000
