40
Properties=species:S:1:pos:R:3 #=T CELL(abcABC):=T 1.889726e+02=T 90.00000=T Traj:=T positionsangstrom=T Step:=T 0=T Bead:=T pbc="F F F"
C      -46.54160000     -36.75830000     -73.89940000
C      -45.96760000     -36.58340000     -72.63620000
C      -46.64150000     -35.87610000     -71.67190000
C      -47.98010000     -35.47910000     -71.88620000
C      -48.48450000     -35.58820000     -73.19530000
C      -47.80500000     -36.23740000     -74.20990000
H      -46.06910000     -37.29570000     -74.71790000
H      -46.40620000     -35.71710000     -70.64310000
H      -49.54880000     -35.28350000     -73.34000000
H      -48.22440000     -36.28920000     -75.20510000
C      -48.81100000     -34.71720000     -70.86580000
H      -48.50220000     -34.93310000     -69.80690000
H      -49.82970000     -35.11460000     -70.98990000
C      -44.55130000     -37.15580000     -72.32960000
H      -44.41340000     -37.17620000     -71.23850000
H      -44.39670000     -38.14920000     -72.63420000
S      -48.80950000     -32.87820000     -71.09360000
S      -43.28780000     -36.02540000     -73.02750000
C      -47.47270000     -32.35470000     -72.35170000
H      -47.61760000     -32.96220000     -73.26310000
H      -47.44640000     -31.26210000     -72.48750000
C      -43.08470000     -34.86240000     -71.59660000
H      -42.29810000     -35.20480000     -70.86750000
H      -44.01070000     -34.80810000     -71.07860000
C      -42.61890000     -33.41320000     -72.03140000
H      -41.60340000     -33.47170000     -72.33900000
H      -43.18890000     -33.15490000     -72.96550000
C      -45.96780000     -32.63760000     -71.88500000
H      -45.31500000     -32.50390000     -72.74150000
H      -45.90870000     -33.61650000     -71.60290000
C      -45.46140000     -31.73810000     -70.75960000
C      -46.15410000     -30.80570000     -70.06150000
C      -43.99200000     -31.60800000     -70.53020000
H      -47.21810000     -30.75090000     -70.05930000
C      -43.75730000     -30.68200000     -69.51490000
C      -42.80150000     -32.28920000     -70.93810000
C      -41.74990000     -31.74790000     -70.24150000
S      -45.18200000     -29.87080000     -68.94840000
S      -42.10780000     -30.54270000     -69.01050000
H      -40.71210000     -31.93460000     -70.45350000
