40
Properties=species:S:1:pos:R:3 #=T CELL(abcABC):=T 1.889726e+02=T 90.00000=T Traj:=T positionsangstrom=T Step:=T 0=T Bead:=T pbc="F F F"
C      -46.34750000     -36.68030000     -74.07340000
C      -45.73650000     -36.61270000     -72.80160000
C      -46.53170000     -36.03110000     -71.76370000
C      -47.77760000     -35.36560000     -72.06560000
C      -48.23210000     -35.35800000     -73.36490000
C      -47.64500000     -36.23210000     -74.33360000
H      -45.80210000     -37.07020000     -74.89910000
H      -46.07310000     -36.02900000     -70.78350000
H      -49.18750000     -34.91420000     -73.65200000
H      -47.96850000     -36.32410000     -75.36070000
C      -48.28960000     -34.42510000     -70.94170000
H      -47.43950000     -34.36360000     -70.28870000
H      -49.14200000     -34.81270000     -70.45670000
C      -44.33400000     -37.14800000     -72.53700000
H      -44.15250000     -37.40330000     -71.49930000
H      -44.14410000     -38.13520000     -73.02110000
S      -48.82590000     -32.78770000     -71.44490000
S      -43.08380000     -35.80200000     -73.04880000
C      -47.56000000     -32.14900000     -72.60590000
H      -47.72770000     -32.81010000     -73.49220000
H      -47.97820000     -31.14280000     -72.76690000
C      -42.98460000     -34.74750000     -71.54140000
H      -42.02460000     -35.03450000     -70.97290000
H      -43.86720000     -34.93250000     -70.92520000
C      -42.92800000     -33.29400000     -72.02970000
H      -42.12050000     -33.14570000     -72.68570000
H      -43.76470000     -33.07010000     -72.71430000
C      -46.10550000     -32.27860000     -72.14280000
H      -45.44040000     -32.06200000     -72.99660000
H      -45.89240000     -33.35440000     -71.91430000
C      -45.59250000     -31.50480000     -70.83430000
C      -46.34710000     -30.73900000     -69.94090000
C      -44.20510000     -31.58370000     -70.42880000
H      -47.34870000     -30.34820000     -69.94740000
C      -43.94520000     -30.83100000     -69.26680000
C      -42.98370000     -32.36300000     -70.83160000
C      -41.91720000     -32.14800000     -69.98510000
S      -45.37530000     -30.27110000     -68.50890000
S      -42.30160000     -30.92090000     -68.67720000
H      -40.81320000     -32.32360000     -70.25660000
