40
Properties=species:S:1:pos:R:3 #=T CELL(abcABC):=T 1.889726e+02=T 90.00000=T Traj:=T positionsangstrom=T Step:=T 0=T Bead:=T pbc="F F F"
C      -46.27210000     -36.71530000     -74.12060000
C      -45.69260000     -36.67230000     -72.82910000
C      -46.38590000     -35.87460000     -71.91600000
C      -47.61510000     -35.18450000     -72.14940000
C      -48.15830000     -35.27130000     -73.40550000
C      -47.43110000     -35.94730000     -74.40620000
H      -45.71610000     -37.31960000     -74.86170000
H      -46.04990000     -35.91060000     -70.89170000
H      -49.09540000     -34.79710000     -73.66560000
H      -47.78420000     -36.07910000     -75.44330000
C      -48.11790000     -34.28780000     -71.00660000
H      -47.30290000     -34.00780000     -70.40980000
H      -48.71210000     -34.78290000     -70.30040000
C      -44.29780000     -37.13140000     -72.52670000
H      -44.26540000     -37.27930000     -71.46840000
H      -44.03080000     -38.01480000     -73.05470000
S      -49.00690000     -32.81520000     -71.58530000
S      -42.94890000     -35.91880000     -72.98020000
C      -47.62630000     -31.77130000     -72.60080000
H      -47.79080000     -31.86560000     -73.69510000
H      -47.87430000     -30.73760000     -72.27050000
C      -43.14920000     -34.70480000     -71.61170000
H      -42.33950000     -34.87780000     -70.87370000
H      -44.20020000     -34.72450000     -71.15190000
C      -42.84890000     -33.25300000     -72.03050000
H      -41.77940000     -33.21650000     -72.34870000
H      -43.55170000     -32.88660000     -72.76330000
C      -46.13220000     -32.07970000     -72.15590000
H      -45.57290000     -31.58150000     -72.96770000
H      -45.85910000     -33.11720000     -72.31360000
C      -45.59790000     -31.54950000     -70.83700000
C      -46.27150000     -30.66330000     -70.03790000
C      -44.27230000     -31.77820000     -70.30290000
H      -47.35080000     -30.46730000     -70.07990000
C      -44.07380000     -31.15360000     -69.03830000
C      -43.04860000     -32.37530000     -70.78620000
C      -41.96100000     -32.19510000     -69.91280000
S      -45.41140000     -30.18640000     -68.56170000
S      -42.42820000     -31.28290000     -68.48670000
H      -41.05140000     -32.72480000     -69.96130000
