40
Properties=species:S:1:pos:R:3 #=T CELL(abcABC):=T 1.889726e+02=T 90.00000=T Traj:=T positionsangstrom=T Step:=T 0=T Bead:=T pbc="F F F"
C      -46.89990000     -30.97990000     -67.96610000
C      -45.67310000     -30.84470000     -68.66920000
C      -45.73830000     -30.76950000     -70.09770000
C      -46.95640000     -30.80180000     -70.80750000
C      -48.12790000     -30.86710000     -70.06290000
C      -48.10620000     -30.96470000     -68.64500000
H      -46.89030000     -30.95430000     -66.87380000
H      -44.90390000     -30.61310000     -70.77330000
H      -49.12770000     -30.71050000     -70.56020000
H      -49.00760000     -31.09980000     -68.01640000
C      -46.85020000     -30.59620000     -72.29260000
H      -45.75540000     -30.54830000     -72.46430000
H      -47.41340000     -29.78410000     -72.64700000
C      -44.27200000     -30.92990000     -68.02680000
H      -43.56670000     -30.37150000     -68.60990000
H      -44.16470000     -30.58990000     -66.97440000
S      -47.41670000     -32.08810000     -73.28040000
S      -43.63090000     -32.66920000     -67.81960000
C      -47.94230000     -33.23730000     -71.87300000
H      -48.44860000     -32.74500000     -71.05300000
H      -48.60870000     -33.87880000     -72.37480000
C      -43.64240000     -33.22330000     -69.56590000
H      -42.80070000     -32.72450000     -70.18930000
H      -44.44480000     -32.71230000     -70.06290000
C      -43.71690000     -34.70240000     -69.84920000
H      -42.96770000     -35.19550000     -69.25260000
H      -44.69810000     -35.14890000     -69.57230000
C      -46.75450000     -34.08790000     -71.34790000
H      -47.17830000     -34.74170000     -70.62280000
H      -46.01100000     -33.55030000     -70.65110000
C      -45.93200000     -34.83020000     -72.41950000
C      -46.44680000     -35.09710000     -73.63220000
C      -44.55120000     -35.21070000     -72.31180000
H      -47.48850000     -34.88560000     -73.93160000
C      -44.01740000     -35.73420000     -73.49900000
C      -43.54860000     -35.04830000     -71.32100000
C      -42.37980000     -35.58660000     -71.76750000
S      -45.27420000     -35.85780000     -74.68280000
S      -42.35380000     -36.13820000     -73.41990000
H      -41.45170000     -35.64920000     -71.22840000
