40
Properties=species:S:1:pos:R:3 #=T CELL(abcABC):=T 1.889726e+02=T 90.00000=T Traj:=T positionsangstrom=T Step:=T 0=T Bead:=T pbc="F F F"
C      -46.21550000     -36.68270000     -74.06510000
C      -45.59270000     -36.53770000     -72.83370000
C      -46.27780000     -35.78030000     -71.84320000
C      -47.49850000     -35.15340000     -72.05520000
C      -48.15160000     -35.40200000     -73.26520000
C      -47.52890000     -36.10050000     -74.25540000
H      -45.79960000     -37.31430000     -74.84320000
H      -45.75970000     -35.67520000     -70.88870000
H      -49.16070000     -34.99080000     -73.37540000
H      -47.99920000     -36.38590000     -75.19870000
C      -48.30600000     -34.50120000     -70.97570000
H      -47.74720000     -34.33430000     -69.96530000
H      -49.31020000     -34.96710000     -70.78880000
C      -44.24260000     -37.20680000     -72.58810000
H      -43.96660000     -37.57330000     -71.54660000
H      -44.18350000     -38.01120000     -73.31520000
S      -48.98650000     -32.73910000     -71.60420000
S      -42.94630000     -35.94360000     -73.12150000
C      -47.51630000     -31.76420000     -72.45190000
H      -47.56290000     -31.84410000     -73.54240000
H      -47.60830000     -30.68190000     -72.35830000
C      -43.19270000     -34.75710000     -71.69400000
H      -42.55350000     -35.04010000     -70.91110000
H      -44.14680000     -34.88910000     -71.26900000
C      -42.91950000     -33.29150000     -72.02920000
H      -41.93430000     -33.13280000     -72.46040000
H      -43.71130000     -32.94730000     -72.79510000
C      -46.13170000     -32.22770000     -72.00500000
H      -45.35390000     -31.87990000     -72.73270000
H      -46.10070000     -33.29370000     -71.99910000
C      -45.67350000     -31.72050000     -70.68330000
C      -46.38610000     -30.82670000     -69.92780000
C      -44.31540000     -31.84270000     -70.24010000
H      -47.43180000     -30.54400000     -70.00870000
C      -44.02850000     -30.96920000     -69.14860000
C      -43.09160000     -32.43710000     -70.77970000
C      -41.99220000     -32.11980000     -69.98920000
S      -45.46210000     -30.05430000     -68.63930000
S      -42.32630000     -31.14380000     -68.57940000
H      -41.05910000     -32.64580000     -70.06250000
