40
Properties=species:S:1:pos:R:3 #=T CELL(abcABC):=T 1.889726e+02=T 90.00000=T Traj:=T positionsangstrom=T Step:=T 0=T Bead:=T pbc="F F F"
C      -41.90740000     -35.17370000     -71.87490000
C      -43.16610000     -35.47150000     -72.39380000
C      -44.11320000     -36.12960000     -71.63360000
C      -43.78530000     -36.39370000     -70.29900000
C      -42.56180000     -35.94900000     -69.74370000
C      -41.55650000     -35.36450000     -70.50000000
H      -41.23840000     -34.62120000     -72.53160000
H      -45.04810000     -36.38800000     -72.10360000
H      -42.54040000     -35.91750000     -68.66660000
H      -40.69630000     -34.95800000     -70.01810000
C      -44.74110000     -37.14100000     -69.36900000
H      -44.47790000     -36.94260000     -68.26550000
H      -44.62610000     -38.18470000     -69.59060000
C      -43.45550000     -35.28210000     -73.85640000
H      -42.76870000     -35.87870000     -74.44900000
H      -44.43250000     -35.60780000     -74.08830000
S      -46.53260000     -36.74120000     -69.73090000
S      -43.09540000     -33.53920000     -74.36550000
C      -46.61600000     -34.84290000     -69.71880000
H      -47.46100000     -34.55470000     -69.08220000
H      -45.71560000     -34.40280000     -69.25160000
C      -44.33600000     -32.42170000     -73.54140000
H      -45.29980000     -32.88390000     -73.52660000
H      -44.26600000     -31.49690000     -74.07050000
C      -43.98680000     -32.08080000     -72.01740000
H      -43.81210000     -33.03270000     -71.45360000
H      -43.06600000     -31.45540000     -72.03080000
C      -46.69880000     -34.14950000     -71.09750000
H      -47.45700000     -34.69860000     -71.71050000
H      -45.73430000     -34.08370000     -71.55690000
C      -47.26220000     -32.74500000     -70.95870000
C      -48.54790000     -32.49150000     -70.50090000
C      -46.46790000     -31.55280000     -71.18420000
H      -49.21700000     -33.36910000     -70.29330000
C      -47.26570000     -30.48860000     -70.88130000
C      -45.14520000     -31.22070000     -71.59590000
C      -44.97150000     -29.83350000     -71.51970000
S      -48.92600000     -30.80380000     -70.28550000
S      -46.44880000     -28.96750000     -71.03450000
H      -44.17480000     -29.25990000     -71.96390000
