40
Properties=species:S:1:pos:R:3 #=T CELL(abcABC):=T 1.889726e+02=T 90.00000=T Traj:=T positionsangstrom=T Step:=T 0=T Bead:=T pbc="F F F"
C      -48.75140000     -33.84590000     -70.01230000
C      -47.48270000     -34.19360000     -70.53080000
C      -46.30140000     -33.73880000     -69.90050000
C      -46.41300000     -32.92280000     -68.72870000
C      -47.70800000     -32.66160000     -68.18940000
C      -48.81160000     -33.17970000     -68.77630000
H      -49.60680000     -34.24870000     -70.51560000
H      -45.29390000     -33.94250000     -70.30020000
H      -47.61880000     -32.13550000     -67.24000000
H      -49.82100000     -32.97750000     -68.29180000
C      -45.23590000     -32.38240000     -67.95890000
H      -44.37320000     -33.07450000     -68.05600000
H      -45.42690000     -32.39290000     -66.89450000
C      -47.40320000     -34.88100000     -71.83330000
H      -46.38490000     -35.24430000     -71.95580000
H      -48.03360000     -35.72190000     -71.76620000
S      -44.61780000     -30.72160000     -68.58140000
S      -47.96090000     -33.87990000     -73.32360000
C      -44.94810000     -30.80100000     -70.41970000
H      -45.78900000     -31.47130000     -70.65320000
H      -45.29260000     -29.74700000     -70.70800000
C      -46.98130000     -32.32760000     -73.29520000
H      -46.68100000     -32.16610000     -72.21480000
H      -47.66780000     -31.58710000     -73.69660000
C      -45.66180000     -32.36570000     -74.19930000
H      -45.81680000     -32.54760000     -75.26510000
H      -45.15910000     -31.40340000     -74.13860000
C      -43.73300000     -31.22300000     -71.19890000
H      -42.83590000     -30.75320000     -70.71490000
H      -43.78310000     -30.65920000     -72.15760000
C      -43.36280000     -32.65980000     -71.43660000
C      -42.40380000     -33.28280000     -70.64620000
C      -43.91430000     -33.53180000     -72.51500000
H      -41.91190000     -32.94280000     -69.75080000
C      -43.32760000     -34.76590000     -72.32500000
C      -44.70960000     -33.42780000     -73.71800000
C      -44.66480000     -34.60900000     -74.40840000
S      -42.32910000     -35.00690000     -70.90820000
S      -43.61320000     -35.85550000     -73.73300000
H      -45.27460000     -34.72450000     -75.29470000
