40
Properties=species:S:1:pos:R:3 #=T CELL(abcABC):=T 1.889726e+02=T 90.00000=T Traj:=T positionsangstrom=T Step:=T 0=T Bead:=T pbc="F F F"
C      -49.05610000     -33.61840000     -70.36880000
C      -47.92840000     -34.27200000     -70.92550000
C      -46.68990000     -33.83930000     -70.44960000
C      -46.55020000     -32.95280000     -69.41520000
C      -47.67310000     -32.36730000     -68.85810000
C      -48.95720000     -32.75490000     -69.29750000
H      -50.03680000     -34.01850000     -70.73660000
H      -45.84040000     -34.31070000     -70.92140000
H      -47.48200000     -31.60530000     -68.12270000
H      -49.86240000     -32.28940000     -68.90830000
C      -45.19660000     -32.70180000     -68.81290000
H      -44.47090000     -33.42560000     -69.28540000
H      -45.22110000     -32.85450000     -67.70170000
C      -48.01860000     -35.11370000     -72.06870000
H      -47.12840000     -35.77290000     -72.01260000
H      -48.89980000     -35.74780000     -72.10730000
S      -44.67150000     -30.85950000     -68.92160000
S      -48.05660000     -34.19140000     -73.63140000
C      -45.01190000     -30.51950000     -70.65400000
H      -45.95420000     -31.06060000     -70.89020000
H      -45.28730000     -29.51800000     -70.70460000
C      -46.91950000     -32.79740000     -73.46600000
H      -46.97340000     -32.41630000     -72.45090000
H      -47.45150000     -32.02190000     -74.06150000
C      -45.48140000     -33.03460000     -73.99190000
H      -45.59820000     -33.39380000     -75.09200000
H      -44.97360000     -32.05680000     -74.03220000
C      -43.99010000     -30.88240000     -71.68660000
H      -43.19050000     -30.09580000     -71.52880000
H      -44.46470000     -30.65990000     -72.65590000
C      -43.36310000     -32.33030000     -71.52150000
C      -42.31980000     -32.42620000     -70.67130000
C      -43.73620000     -33.56070000     -72.15830000
H      -42.06220000     -31.66300000     -69.94640000
C      -42.91440000     -34.61760000     -71.71820000
C      -44.67180000     -33.95720000     -73.15460000
C      -44.62530000     -35.33640000     -73.37270000
S      -41.71340000     -34.11810000     -70.53200000
S      -43.49150000     -36.15930000     -72.34620000
H      -45.21760000     -35.77370000     -74.15090000
