40
Properties=species:S:1:pos:R:3 #=T CELL(abcABC):=T 1.889726e+02=T 90.00000=T Traj:=T positionsangstrom=T Step:=T 0=T Bead:=T pbc="F F F"
C      -48.96630000     -33.65550000     -70.40530000
C      -47.77770000     -34.23780000     -70.92740000
C      -46.61200000     -34.11890000     -70.22180000
C      -46.54150000     -33.21160000     -69.13400000
C      -47.68020000     -32.52810000     -68.75770000
C      -48.91510000     -32.67940000     -69.32110000
H      -49.82620000     -33.87310000     -70.97510000
H      -45.70420000     -34.60110000     -70.57160000
H      -47.45950000     -31.76360000     -67.93640000
H      -49.81590000     -32.33540000     -68.95660000
C      -45.17430000     -32.77050000     -68.54670000
H      -44.44950000     -33.29420000     -69.17440000
H      -44.91160000     -32.89230000     -67.53790000
C      -47.85200000     -35.17240000     -72.15130000
H      -46.83470000     -35.60210000     -72.21300000
H      -48.60080000     -35.93160000     -72.11350000
S      -44.73770000     -30.95160000     -68.74750000
S      -48.07780000     -34.15180000     -73.76360000
C      -45.09310000     -30.65410000     -70.63830000
H      -45.88960000     -31.40560000     -70.81270000
H      -45.59610000     -29.66950000     -70.75900000
C      -46.90620000     -32.71780000     -73.56720000
H      -46.86030000     -32.48600000     -72.48400000
H      -47.24150000     -31.82350000     -74.06570000
C      -45.49930000     -32.98430000     -74.15220000
H      -45.60790000     -33.37260000     -75.11350000
H      -44.96940000     -32.04200000     -74.28620000
C      -43.93790000     -30.79850000     -71.63090000
H      -43.14550000     -30.09590000     -71.41890000
H      -44.23000000     -30.58220000     -72.65210000
C      -43.25130000     -32.23520000     -71.59470000
C      -42.20960000     -32.43330000     -70.78500000
C      -43.72920000     -33.43420000     -72.23950000
H      -41.78170000     -31.59360000     -70.23090000
C      -43.02750000     -34.53060000     -71.75380000
C      -44.71910000     -33.85510000     -73.27530000
C      -44.64830000     -35.23690000     -73.46550000
S      -41.82180000     -34.09910000     -70.59750000
S      -43.56810000     -36.05030000     -72.32370000
H      -45.22940000     -35.67450000     -74.25970000
