40
Properties=species:S:1:pos:R:3 #=T CELL(abcABC):=T 1.889726e+02=T 90.00000=T Traj:=T positionsangstrom=T Step:=T 0=T Bead:=T pbc="F F F"
C      -48.85540000     -33.44610000     -70.14660000
C      -47.59410000     -34.05620000     -70.49180000
C      -46.37090000     -33.63470000     -69.89820000
C      -46.43390000     -32.55040000     -69.00340000
C      -47.65290000     -31.80110000     -68.90310000
C      -48.86540000     -32.28440000     -69.42420000
H      -49.86470000     -33.68620000     -70.56010000
H      -45.41510000     -34.03380000     -70.00180000
H      -47.78120000     -30.87110000     -68.36970000
H      -49.77650000     -31.64860000     -69.40550000
C      -45.21950000     -31.83470000     -68.54210000
H      -44.44160000     -32.55330000     -68.57950000
H      -45.33940000     -31.54740000     -67.49600000
C      -47.59940000     -35.22820000     -71.50240000
H      -46.57180000     -35.60620000     -71.38590000
H      -48.38620000     -35.92840000     -71.35620000
S      -44.75250000     -30.29980000     -69.49960000
S      -48.08410000     -34.68350000     -73.26960000
C      -45.24070000     -30.73900000     -71.27540000
H      -46.02840000     -31.54540000     -71.20110000
H      -45.79990000     -29.76630000     -71.59490000
C      -46.93950000     -33.19750000     -73.52540000
H      -46.88670000     -32.69620000     -72.52930000
H      -47.42740000     -32.56300000     -74.29430000
C      -45.50550000     -33.39610000     -74.15750000
H      -45.57460000     -33.78480000     -75.16680000
H      -45.09160000     -32.41240000     -74.18730000
C      -44.01770000     -31.13460000     -72.14920000
H      -43.23030000     -30.38450000     -72.15060000
H      -44.35300000     -31.20730000     -73.18550000
C      -43.45500000     -32.45170000     -71.74920000
C      -42.57590000     -32.54920000     -70.65340000
C      -43.81830000     -33.76780000     -72.26680000
H      -42.26430000     -31.66700000     -70.17660000
C      -43.05120000     -34.73260000     -71.65250000
C      -44.55330000     -34.25600000     -73.38510000
C      -44.46480000     -35.62010000     -73.58610000
S      -42.12780000     -34.21020000     -70.31100000
S      -43.33370000     -36.30210000     -72.43360000
H      -44.86980000     -36.25450000     -74.36780000
