40
Properties=species:S:1:pos:R:3 #=T CELL(abcABC):=T 1.889726e+02=T 90.00000=T Traj:=T positionsangstrom=T Step:=T 0=T Bead:=T pbc="F F F"
C      -49.00570000     -33.35690000     -70.36590000
C      -47.83750000     -34.04120000     -70.66350000
C      -46.63690000     -33.60810000     -70.06020000
C      -46.59240000     -32.46380000     -69.21330000
C      -47.80070000     -31.75640000     -68.87320000
C      -48.96840000     -32.27350000     -69.45260000
H      -49.97830000     -33.56630000     -70.73040000
H      -45.64010000     -34.16190000     -70.04890000
H      -47.81460000     -30.79390000     -68.28100000
H      -49.89540000     -31.77020000     -69.21970000
C      -45.36390000     -32.07120000     -68.44340000
H      -44.55470000     -32.77950000     -68.46090000
H      -45.55530000     -31.79830000     -67.44780000
C      -47.84010000     -35.13960000     -71.67210000
H      -47.04920000     -35.83830000     -71.58830000
H      -48.82540000     -35.70130000     -71.53030000
S      -44.67950000     -30.45280000     -69.17230000
S      -48.05620000     -34.73290000     -73.48460000
C      -45.07690000     -30.44510000     -70.94260000
H      -46.02010000     -31.07360000     -71.03530000
H      -45.39930000     -29.45830000     -71.33710000
C      -47.00590000     -33.24340000     -73.67820000
H      -46.98330000     -32.77760000     -72.68600000
H      -47.54090000     -32.55280000     -74.30500000
C      -45.54270000     -33.42990000     -74.17830000
H      -45.45470000     -33.92860000     -75.12940000
H      -45.09930000     -32.42970000     -74.33090000
C      -44.05930000     -31.09760000     -71.94520000
H      -43.22450000     -30.39080000     -72.18980000
H      -44.54590000     -31.29380000     -72.93490000
C      -43.39690000     -32.42280000     -71.60580000
C      -42.39620000     -32.55000000     -70.67050000
C      -43.70070000     -33.67180000     -72.20830000
H      -41.93330000     -31.88190000     -69.87680000
C      -42.91900000     -34.73090000     -71.71910000
C      -44.66480000     -34.23880000     -73.19890000
C      -44.47460000     -35.54360000     -73.46810000
S      -41.79820000     -34.18870000     -70.53570000
S      -43.31950000     -36.34030000     -72.32500000
H      -44.99440000     -36.08300000     -74.19340000
