40
Properties=species:S:1:pos:R:3 #=T CELL(abcABC):=T 1.889726e+02=T 90.00000=T Traj:=T positionsangstrom=T Step:=T 0=T Bead:=T pbc="F F F"
C      -46.54920000     -36.74320000     -73.08740000
C      -46.61410000     -36.50450000     -71.72180000
C      -47.63890000     -35.60290000     -71.23020000
C      -48.46590000     -34.82000000     -72.09750000
C      -48.29070000     -35.01970000     -73.47600000
C      -47.37440000     -36.00350000     -73.94330000
H      -45.84970000     -37.35840000     -73.56490000
H      -47.72970000     -35.62300000     -70.14220000
H      -48.83520000     -34.57950000     -74.27240000
H      -47.37810000     -36.09420000     -75.00010000
C      -49.35040000     -33.63800000     -71.67760000
H      -49.98040000     -33.82690000     -70.81780000
H      -50.11630000     -33.44230000     -72.42120000
C      -45.79480000     -37.35820000     -70.79630000
H      -45.96080000     -37.26910000     -69.68590000
H      -45.89630000     -38.39960000     -70.90670000
S      -48.36820000     -32.17480000     -71.29710000
S      -44.00690000     -37.02380000     -71.13640000
C      -47.18700000     -32.10590000     -72.75960000
H      -47.57490000     -32.73320000     -73.52030000
H      -47.15450000     -31.02740000     -73.28050000
C      -43.72170000     -35.26730000     -70.52560000
H      -42.96640000     -35.34880000     -69.62730000
H      -44.67760000     -34.83370000     -70.16890000
C      -43.18740000     -34.26670000     -71.60220000
H      -42.25580000     -34.80400000     -72.06150000
H      -43.85190000     -34.22900000     -72.47400000
C      -45.87000000     -32.44290000     -72.21460000
H      -45.18650000     -32.83900000     -73.01830000
H      -46.07870000     -33.34560000     -71.57530000
C      -45.14040000     -31.53940000     -71.35790000
C      -45.61890000     -30.32560000     -70.93690000
C      -43.77710000     -31.82540000     -70.93100000
H      -46.56340000     -29.87150000     -71.26850000
C      -43.23110000     -30.71470000     -70.26460000
C      -42.84330000     -32.94240000     -71.05150000
C      -41.61900000     -32.58740000     -70.52120000
S      -44.33100000     -29.42390000     -70.13170000
S      -41.57920000     -31.03120000     -69.73930000
H      -40.72460000     -33.14470000     -70.36460000
