40
Properties=species:S:1:pos:R:3 #=T CELL(abcABC):=T 1.889726e+02=T 90.00000=T Traj:=T positionsangstrom=T Step:=T 0=T Bead:=T pbc="F F F"
C      -48.90280000     -33.49420000     -69.76630000
C      -47.76300000     -34.08820000     -70.25920000
C      -46.56770000     -33.42330000     -69.99050000
C      -46.48250000     -32.17460000     -69.37160000
C      -47.69280000     -31.62450000     -68.86320000
C      -48.85120000     -32.32340000     -69.01320000
H      -49.88580000     -34.01110000     -69.85430000
H      -45.64190000     -33.93450000     -70.31260000
H      -47.79870000     -30.58570000     -68.44610000
H      -49.78460000     -31.96720000     -68.47710000
C      -45.15970000     -31.57070000     -69.24230000
H      -44.43160000     -32.27200000     -69.59610000
H      -44.88190000     -31.29840000     -68.19600000
C      -47.82570000     -35.31850000     -71.04540000
H      -46.94210000     -35.99970000     -70.89760000
H      -48.66950000     -35.94960000     -70.65830000
S      -44.81630000     -29.95310000     -70.19360000
S      -48.08770000     -34.99960000     -72.82790000
C      -45.16090000     -30.57980000     -71.93190000
H      -45.95770000     -31.38490000     -71.91330000
H      -45.40750000     -29.68520000     -72.39600000
C      -47.01290000     -33.50560000     -73.29470000
H      -46.74500000     -32.93880000     -72.38990000
H      -47.64280000     -32.79230000     -73.87720000
C      -45.69750000     -33.73620000     -73.99510000
H      -45.77420000     -34.25970000     -74.95900000
H      -45.31480000     -32.73400000     -74.13220000
C      -43.83670000     -31.18170000     -72.65700000
H      -42.96370000     -30.48500000     -72.68800000
H      -44.12690000     -31.52480000     -73.67760000
C      -43.30370000     -32.50450000     -72.01150000
C      -42.33080000     -32.42850000     -71.01670000
C      -43.65580000     -33.85420000     -72.36110000
H      -41.85380000     -31.59910000     -70.53930000
C      -42.84950000     -34.74540000     -71.79350000
C      -44.70620000     -34.41490000     -73.09770000
C      -44.72080000     -35.77650000     -72.96480000
S      -41.81320000     -34.07220000     -70.49270000
S      -43.46200000     -36.39240000     -71.84770000
H      -45.40800000     -36.45910000     -73.49700000
