40
Properties=species:S:1:pos:R:3 #=T CELL(abcABC):=T 1.889726e+02=T 90.00000=T Traj:=T positionsangstrom=T Step:=T 0=T Bead:=T pbc="F F F"
C      -48.97700000     -33.44030000     -69.55450000
C      -47.81930000     -34.08610000     -70.18490000
C      -46.56820000     -33.49140000     -70.00940000
C      -46.43310000     -32.16520000     -69.45630000
C      -47.61630000     -31.45750000     -69.08310000
C      -48.83990000     -32.11730000     -69.10800000
H      -49.99390000     -33.86520000     -69.68150000
H      -45.72830000     -33.94060000     -70.42680000
H      -47.47950000     -30.40670000     -68.91320000
H      -49.62260000     -31.52210000     -68.67120000
C      -45.11160000     -31.58180000     -69.35050000
H      -44.37530000     -32.29990000     -69.66840000
H      -44.84720000     -31.41630000     -68.32050000
C      -47.99710000     -35.29020000     -71.10180000
H      -47.10470000     -35.85740000     -71.00090000
H      -48.91870000     -35.82580000     -70.90750000
S      -44.80190000     -30.04160000     -70.31640000
S      -48.23200000     -34.87730000     -72.93400000
C      -45.00680000     -30.46850000     -72.12630000
H      -45.99120000     -30.88920000     -72.19790000
H      -45.05730000     -29.52030000     -72.56230000
C      -46.90200000     -33.70780000     -73.39690000
H      -46.71430000     -33.12420000     -72.48980000
H      -47.31190000     -33.01110000     -74.08400000
C      -45.73820000     -34.40900000     -74.04360000
H      -46.06630000     -35.30120000     -74.61300000
H      -45.23230000     -33.66820000     -74.68940000
C      -44.01890000     -31.29750000     -72.96310000
H      -43.15760000     -30.73420000     -73.47480000
H      -44.62990000     -31.71870000     -73.80630000
C      -43.40480000     -32.53710000     -72.19370000
C      -42.40300000     -32.22050000     -71.28820000
C      -43.76300000     -33.96730000     -72.14170000
H      -41.87430000     -31.30010000     -71.07270000
C      -42.87920000     -34.69150000     -71.36710000
C      -44.66910000     -34.80680000     -72.95870000
C      -44.53430000     -36.07970000     -72.61450000
S      -41.78240000     -33.68500000     -70.54700000
S      -43.30540000     -36.36590000     -71.36570000
H      -45.03130000     -36.95980000     -73.07660000
