40
Properties=species:S:1:pos:R:3 #=T CELL(abcABC):=T 1.889726e+02=T 90.00000=T Traj:=T positionsangstrom=T Step:=T 0=T Bead:=T pbc="F F F"
C      -48.89400000     -33.31520000     -69.99380000
C      -47.72750000     -33.98170000     -70.42370000
C      -46.46500000     -33.34930000     -70.32780000
C      -46.46010000     -32.15490000     -69.60110000
C      -47.55740000     -31.57820000     -68.91610000
C      -48.81170000     -32.14130000     -69.25440000
H      -49.81080000     -33.91630000     -70.12720000
H      -45.53040000     -33.66400000     -70.65790000
H      -47.49760000     -30.77940000     -68.25500000
H      -49.68490000     -31.67410000     -68.93340000
C      -45.08170000     -31.44480000     -69.40110000
H      -44.26860000     -32.21300000     -69.40440000
H      -45.10410000     -30.93850000     -68.41150000
C      -47.81570000     -35.33150000     -71.07680000
H      -46.87880000     -36.00300000     -70.99940000
H      -48.59620000     -35.93480000     -70.64010000
S      -44.66340000     -29.97060000     -70.47760000
S      -48.32650000     -35.02570000     -72.80110000
C      -45.19490000     -30.64780000     -72.09660000
H      -46.11840000     -31.36920000     -72.03430000
H      -45.41610000     -29.82730000     -72.76840000
C      -47.08800000     -33.75890000     -73.40860000
H      -46.88610000     -33.04800000     -72.62610000
H      -47.54910000     -33.22260000     -74.29220000
C      -45.71660000     -34.38930000     -73.89690000
H      -45.94030000     -35.14990000     -74.56810000
H      -45.26960000     -33.58790000     -74.60900000
C      -44.13900000     -31.46810000     -72.88760000
H      -43.49170000     -30.74700000     -73.23020000
H      -44.70240000     -31.97060000     -73.68250000
C      -43.52020000     -32.51490000     -72.07930000
C      -42.46190000     -32.21890000     -71.27810000
C      -43.76660000     -33.92740000     -72.18820000
H      -42.18040000     -31.18190000     -71.02460000
C      -42.81140000     -34.65040000     -71.41340000
C      -44.72190000     -34.78360000     -72.86730000
C      -44.50280000     -36.05490000     -72.49330000
S      -41.83190000     -33.63000000     -70.35480000
S      -43.25600000     -36.35900000     -71.29290000
H      -44.95520000     -36.87990000     -73.03480000
