40
Properties=species:S:1:pos:R:3 #=T CELL(abcABC):=T 1.889726e+02=T 90.00000=T Traj:=T positionsangstrom=T Step:=T 0=T Bead:=T pbc="F F F"
C      -48.89260000     -33.15180000     -69.92750000
C      -47.72330000     -33.82000000     -70.13560000
C      -46.50210000     -33.11150000     -69.81240000
C      -46.59280000     -31.77520000     -69.31300000
C      -47.82960000     -31.08930000     -69.28180000
C      -48.99900000     -31.75990000     -69.53700000
H      -49.88670000     -33.67770000     -70.12400000
H      -45.47210000     -33.59110000     -69.84370000
H      -47.76260000     -30.01900000     -69.13270000
H      -50.05530000     -31.34180000     -69.49300000
C      -45.32890000     -31.01260000     -69.09050000
H      -44.43560000     -31.60840000     -68.65680000
H      -45.43020000     -30.17340000     -68.35200000
C      -47.62890000     -35.29510000     -70.58960000
H      -46.66310000     -35.70120000     -70.26050000
H      -48.47890000     -35.82560000     -70.11880000
S      -44.85690000     -29.92020000     -70.58900000
S      -47.85790000     -35.47640000     -72.49620000
C      -45.46080000     -30.87260000     -72.21260000
H      -46.12800000     -31.63340000     -71.86600000
H      -46.02880000     -30.05750000     -72.75160000
C      -47.04200000     -33.95280000     -73.12570000
H      -46.85780000     -33.19990000     -72.30860000
H      -47.81910000     -33.55870000     -73.71730000
C      -45.75900000     -34.41310000     -73.94600000
H      -46.05820000     -35.19720000     -74.73270000
H      -45.43430000     -33.57890000     -74.55650000
C      -44.28810000     -31.47170000     -73.03130000
H      -43.58480000     -30.56850000     -73.19740000
H      -44.71050000     -31.78170000     -73.98450000
C      -43.45820000     -32.59000000     -72.37120000
C      -42.42160000     -32.27720000     -71.56450000
C      -43.71290000     -34.04600000     -72.38900000
H      -42.05730000     -31.30350000     -71.21450000
C      -42.95010000     -34.65350000     -71.39330000
C      -44.61910000     -34.94160000     -73.07270000
C      -44.49930000     -36.26080000     -72.58440000
S      -41.72760000     -33.66930000     -70.71490000
S      -43.20680000     -36.44280000     -71.27620000
H      -45.07240000     -37.13180000     -72.91250000
