40
Properties=species:S:1:pos:R:3 #=T CELL(abcABC):=T 1.889726e+02=T 90.00000=T Traj:=T positionsangstrom=T Step:=T 0=T Bead:=T pbc="F F F"
C      -45.61130000     -32.86030000     -67.16330000
C      -45.51360000     -32.01070000     -68.25570000
C      -44.32560000     -32.05380000     -69.00230000
C      -43.21470000     -32.87640000     -68.69060000
C      -43.32300000     -33.64680000     -67.51420000
C      -44.47220000     -33.57590000     -66.72730000
H      -46.53640000     -32.87430000     -66.62040000
H      -44.26900000     -31.42570000     -69.96370000
H      -42.47800000     -34.26670000     -67.07460000
H      -44.49920000     -34.17700000     -65.78850000
C      -42.05510000     -32.72770000     -69.62080000
H      -41.12230000     -32.44230000     -69.10690000
H      -42.27010000     -32.03480000     -70.46880000
C      -46.66780000     -31.06100000     -68.68300000
H      -47.33240000     -30.92580000     -67.80640000
H      -46.30210000     -30.06800000     -69.01980000
S      -41.46700000     -34.28720000     -70.37330000
S      -47.55350000     -31.67230000     -70.21820000
C      -42.24040000     -34.02740000     -72.07050000
H      -41.86010000     -33.10350000     -72.56980000
H      -41.92250000     -34.91210000     -72.64040000
C      -47.88110000     -33.43140000     -69.81510000
H      -48.97830000     -33.66470000     -69.89370000
H      -47.51310000     -33.59740000     -68.78280000
C      -46.98190000     -34.34920000     -70.66140000
H      -45.93770000     -34.19050000     -70.38500000
H      -47.20400000     -35.39350000     -70.46310000
C      -43.72010000     -34.05940000     -71.86870000
H      -43.97700000     -33.30550000     -71.14180000
H      -44.12570000     -34.99060000     -71.49400000
C      -44.56440000     -33.82300000     -73.14320000
C      -44.08080000     -33.49440000     -74.40260000
C      -46.00730000     -34.06830000     -73.14040000
H      -43.05500000     -33.34980000     -74.67950000
C      -46.47570000     -33.99990000     -74.45330000
C      -47.14000000     -34.21520000     -72.23380000
C      -48.35800000     -34.32640000     -72.84660000
S      -45.26680000     -33.61180000     -75.64950000
S      -48.24050000     -34.10570000     -74.58300000
H      -49.32380000     -34.49590000     -72.39790000
