40
Properties=species:S:1:pos:R:3 #=T CELL(abcABC):=T 1.889726e+02=T 90.00000=T Traj:=T positionsangstrom=T Step:=T 0=T Bead:=T pbc="F F F"
C      -45.74440000     -33.65420000     -67.43390000
C      -45.73770000     -32.42080000     -68.09850000
C      -44.56640000     -31.96380000     -68.73950000
C      -43.39780000     -32.74630000     -68.72110000
C      -43.36850000     -33.89730000     -67.98530000
C      -44.55460000     -34.38570000     -67.36280000
H      -46.66240000     -34.04320000     -66.96510000
H      -44.45780000     -30.99550000     -69.34950000
H      -42.51120000     -34.63630000     -68.00440000
H      -44.56510000     -35.28810000     -66.73870000
C      -42.10560000     -32.20710000     -69.36880000
H      -41.31200000     -31.88480000     -68.58490000
H      -42.48370000     -31.30190000     -70.03920000
C      -46.98920000     -31.60010000     -68.20940000
H      -47.65420000     -31.78390000     -67.35910000
H      -46.75420000     -30.54870000     -68.08550000
S      -41.23480000     -33.36510000     -70.45560000
S      -47.72810000     -31.65680000     -69.85860000
C      -42.26640000     -33.58280000     -72.01150000
H      -42.35420000     -32.61270000     -72.48510000
H      -41.56850000     -34.29440000     -72.62660000
C      -48.01670000     -33.49360000     -69.97280000
H      -49.04150000     -33.59560000     -70.24810000
H      -47.91430000     -33.88070000     -68.95450000
C      -47.01830000     -34.34910000     -70.83070000
H      -46.00660000     -34.04010000     -70.60440000
H      -47.05540000     -35.42950000     -70.59200000
C      -43.67560000     -34.09720000     -71.77900000
H      -44.16350000     -33.51080000     -71.01970000
H      -43.67930000     -35.14160000     -71.40810000
C      -44.50050000     -34.06220000     -73.07810000
C      -43.91940000     -34.02260000     -74.30640000
C      -45.99350000     -34.01990000     -73.17380000
H      -42.93020000     -34.09110000     -74.54160000
C      -46.37950000     -33.87640000     -74.47810000
C      -47.10270000     -34.12180000     -72.32060000
C      -48.31570000     -34.02160000     -72.97030000
S      -45.00850000     -34.00340000     -75.62860000
S      -48.11910000     -33.87040000     -74.67970000
H      -49.34930000     -34.17530000     -72.57260000
