40
Properties=species:S:1:pos:R:3 #=T CELL(abcABC):=T 1.889726e+02=T 90.00000=T Traj:=T positionsangstrom=T Step:=T 0=T Bead:=T pbc="F F F"
C      -45.50540000     -33.15490000     -67.11240000
C      -45.54960000     -32.12350000     -68.07580000
C      -44.36360000     -31.90570000     -68.84120000
C      -43.21010000     -32.70520000     -68.63900000
C      -43.24540000     -33.79120000     -67.72340000
C      -44.43730000     -34.01270000     -66.99630000
H      -46.33230000     -33.27980000     -66.48100000
H      -44.40800000     -31.20040000     -69.62230000
H      -42.35090000     -34.33430000     -67.53090000
H      -44.55550000     -34.72110000     -66.23160000
C      -41.97280000     -32.45880000     -69.51530000
H      -41.01070000     -32.20380000     -68.90620000
H      -42.15230000     -31.63470000     -70.24800000
C      -46.84410000     -31.37070000     -68.27120000
H      -47.57870000     -31.66410000     -67.52650000
H      -46.75790000     -30.28940000     -68.16650000
S      -41.42330000     -33.94280000     -70.41690000
S      -47.62500000     -31.68480000     -69.94290000
C      -42.30710000     -33.83840000     -72.02070000
H      -42.03060000     -32.80720000     -72.42760000
H      -41.93830000     -34.60450000     -72.61640000
C      -47.86100000     -33.49020000     -69.81630000
H      -48.86510000     -33.82490000     -69.93420000
H      -47.43600000     -33.69860000     -68.88250000
C      -46.98320000     -34.26600000     -70.79940000
H      -45.95140000     -34.14950000     -70.59890000
H      -47.10430000     -35.34100000     -70.59590000
C      -43.87840000     -33.94690000     -71.86020000
H      -44.28600000     -33.10970000     -71.17400000
H      -44.05030000     -34.87670000     -71.37490000
C      -44.60210000     -33.83260000     -73.22100000
C      -44.06920000     -33.74490000     -74.51510000
C      -45.99580000     -34.07370000     -73.23350000
H      -42.99960000     -33.59730000     -74.81880000
C      -46.44670000     -34.05040000     -74.54990000
C      -47.09320000     -34.05450000     -72.26750000
C      -48.33990000     -34.07000000     -72.90470000
S      -45.23640000     -33.90440000     -75.80720000
S      -48.20360000     -34.03130000     -74.65070000
H      -49.29790000     -34.12010000     -72.52600000
