40
Properties=species:S:1:pos:R:3 #=T CELL(abcABC):=T 1.889726e+02=T 90.00000=T Traj:=T positionsangstrom=T Step:=T 0=T Bead:=T pbc="F F F"
C      -45.58500000     -32.41670000     -75.09580000
C      -45.79730000     -31.43600000     -74.07710000
C      -46.82560000     -31.66510000     -73.17440000
C      -47.72300000     -32.72580000     -73.36670000
C      -47.55450000     -33.63080000     -74.45700000
C      -46.51160000     -33.42940000     -75.31600000
H      -44.71910000     -32.37120000     -75.76680000
H      -47.05830000     -30.95700000     -72.36250000
H      -48.30450000     -34.52250000     -74.54330000
H      -46.53840000     -33.98650000     -76.19750000
C      -48.99510000     -32.85410000     -72.50970000
H      -49.43300000     -33.91230000     -72.66820000
H      -49.77600000     -32.16650000     -72.89800000
C      -44.83610000     -30.22420000     -73.91740000
H      -43.96730000     -30.40400000     -74.55470000
H      -45.33530000     -29.31420000     -74.23100000
S      -48.62510000     -32.50620000     -70.69670000
S      -44.38690000     -29.95580000     -72.18130000
C      -47.49820000     -33.96280000     -70.29330000
H      -48.06770000     -34.89230000     -70.30250000
H      -46.84450000     -34.12350000     -71.19280000
C      -43.38320000     -31.41440000     -71.85930000
H      -42.81200000     -31.22160000     -70.93420000
H      -42.67710000     -31.55120000     -72.68730000
C      -44.19040000     -32.67590000     -71.61930000
H      -45.14350000     -32.45620000     -71.12390000
H      -44.31000000     -33.15770000     -72.67600000
C      -46.70120000     -33.58750000     -69.05620000
H      -47.41570000     -33.61640000     -68.16720000
H      -46.35100000     -32.57500000     -69.07140000
C      -45.46520000     -34.56380000     -68.92080000
C      -45.53060000     -35.57310000     -68.01560000
C      -44.25550000     -34.53670000     -69.68430000
H      -46.32460000     -35.91910000     -67.33780000
C      -43.43260000     -35.64960000     -69.31170000
C      -43.66990000     -33.81710000     -70.81760000
C      -42.38800000     -34.26930000     -71.16070000
S      -44.12050000     -36.62530000     -68.10180000
S      -41.93520000     -35.66710000     -70.26420000
H      -41.82760000     -33.71350000     -71.91480000
