40
Properties=species:S:1:pos:R:3 #=T CELL(abcABC):=T 1.889726e+02=T 90.00000=T Traj:=T positionsangstrom=T Step:=T 0=T Bead:=T pbc="F F F"
C      -45.89910000     -33.65460000     -67.48340000
C      -45.93510000     -32.50190000     -68.22560000
C      -44.73000000     -32.02590000     -68.84220000
C      -43.54790000     -32.73450000     -68.66540000
C      -43.54250000     -33.92390000     -67.92580000
C      -44.70260000     -34.37170000     -67.31830000
H      -46.78610000     -33.91510000     -66.88310000
H      -44.69350000     -31.00630000     -69.27480000
H      -42.59300000     -34.39930000     -67.62450000
H      -44.77700000     -35.33410000     -66.83110000
C      -42.25770000     -32.05460000     -69.08190000
H      -41.51060000     -32.09730000     -68.27430000
H      -42.28880000     -30.88890000     -69.27400000
C      -47.17530000     -31.60530000     -68.35470000
H      -47.82730000     -31.75860000     -67.52390000
H      -46.95590000     -30.62190000     -68.51030000
S      -41.33550000     -32.78880000     -70.47370000
S      -48.22130000     -32.08200000     -69.74320000
C      -42.67030000     -32.72100000     -71.77500000
H      -43.41660000     -31.98100000     -71.59260000
H      -42.19890000     -32.42770000     -72.70450000
C      -47.98320000     -33.84930000     -69.96590000
H      -48.90510000     -34.35530000     -70.34740000
H      -47.94540000     -34.27340000     -68.97600000
C      -46.72780000     -34.26380000     -70.78550000
H      -45.85680000     -33.63360000     -70.50270000
H      -46.44340000     -35.33040000     -70.63600000
C      -43.42130000     -34.09890000     -71.95260000
H      -43.95110000     -34.43970000     -71.09830000
H      -42.59700000     -34.82580000     -71.94670000
C      -44.22550000     -34.10970000     -73.18070000
C      -43.69640000     -34.17600000     -74.42660000
C      -45.70120000     -34.17790000     -73.19660000
H      -42.69950000     -33.79970000     -74.64010000
C      -46.12070000     -34.05920000     -74.50630000
C      -46.78920000     -34.19330000     -72.28650000
C      -47.97970000     -34.10070000     -72.98220000
S      -44.87420000     -34.05300000     -75.70660000
S      -47.86490000     -33.99750000     -74.68680000
H      -49.00590000     -34.16160000     -72.56320000
