40
Properties=species:S:1:pos:R:3 #=T CELL(abcABC):=T 1.889726e+02=T 90.00000=T Traj:=T positionsangstrom=T Step:=T 0=T Bead:=T pbc="F F F"
C      -45.84760000     -33.85950000     -67.65710000
C      -45.78950000     -32.52960000     -68.08950000
C      -44.62990000     -31.97290000     -68.69100000
C      -43.41870000     -32.60850000     -68.62340000
C      -43.46240000     -33.93140000     -68.05880000
C      -44.60180000     -34.56230000     -67.65760000
H      -46.80530000     -34.21920000     -67.25870000
H      -44.68250000     -30.98520000     -69.03880000
H      -42.57450000     -34.48670000     -68.08850000
H      -44.66490000     -35.64120000     -67.39160000
C      -42.12820000     -32.04170000     -69.24020000
H      -41.41010000     -31.73250000     -68.38670000
H      -42.30210000     -31.10030000     -69.77250000
C      -47.06130000     -31.66000000     -68.04790000
H      -47.70640000     -32.11950000     -67.29010000
H      -46.87620000     -30.58230000     -67.97250000
S      -41.23160000     -33.25290000     -70.39140000
S      -48.01910000     -31.77730000     -69.65540000
C      -42.39250000     -33.15550000     -71.89750000
H      -42.75830000     -32.05340000     -71.91590000
H      -41.83180000     -33.20260000     -72.79730000
C      -48.03730000     -33.56990000     -70.00580000
H      -49.00050000     -33.73620000     -70.49040000
H      -48.22300000     -34.16520000     -69.14010000
C      -46.90880000     -34.17180000     -70.78050000
H      -45.94540000     -33.79600000     -70.44070000
H      -46.87690000     -35.24600000     -70.56400000
C      -43.56210000     -34.07600000     -71.86340000
H      -44.29140000     -33.84530000     -71.02880000
H      -43.32030000     -35.16300000     -71.74580000
C      -44.40850000     -34.03560000     -73.17290000
C      -43.78050000     -33.98670000     -74.37500000
C      -45.83400000     -33.99030000     -73.19430000
H      -42.69050000     -34.09250000     -74.49000000
C      -46.30380000     -33.96010000     -74.52320000
C      -46.96200000     -34.09400000     -72.27800000
C      -48.15970000     -34.15160000     -73.00380000
S      -44.98420000     -33.96540000     -75.71770000
S      -47.97180000     -33.99190000     -74.73150000
H      -49.14140000     -34.12990000     -72.58510000
