40
Properties=species:S:1:pos:R:3 #=T CELL(abcABC):=T 1.889726e+02=T 90.00000=T Traj:=T positionsangstrom=T Step:=T 0=T Bead:=T pbc="F F F"
C      -46.87690000     -35.73660000     -74.16600000
C      -47.57990000     -35.27780000     -72.99160000
C      -48.03290000     -33.98300000     -73.03210000
C      -47.76400000     -33.06470000     -74.12050000
C      -47.12170000     -33.59430000     -75.22850000
C      -46.70400000     -34.93760000     -75.26110000
H      -46.46690000     -36.75480000     -74.11250000
H      -48.62430000     -33.54950000     -72.23610000
H      -46.95450000     -32.88230000     -76.11280000
H      -46.15360000     -35.31900000     -76.12990000
C      -48.17120000     -31.59410000     -73.99970000
H      -49.23480000     -31.59280000     -73.85030000
H      -47.93500000     -31.12480000     -75.00230000
C      -47.89370000     -36.27000000     -71.94280000
H      -48.67130000     -35.89710000     -71.28140000
H      -48.42870000     -37.14880000     -72.32990000
S      -47.34550000     -30.76260000     -72.62800000
S      -46.53770000     -36.92400000     -70.88500000
C      -45.59960000     -31.26100000     -72.90440000
H      -45.57620000     -31.52310000     -73.95470000
H      -44.99000000     -30.35430000     -72.84180000
C      -45.69620000     -35.52160000     -70.03400000
H      -45.77940000     -35.72560000     -68.90080000
H      -46.29320000     -34.62280000     -70.22590000
C      -44.18720000     -35.48990000     -70.43720000
H      -43.63140000     -36.44700000     -70.22250000
H      -44.19370000     -35.14370000     -71.48420000
C      -45.06370000     -32.40600000     -71.92990000
H      -44.63410000     -33.24710000     -72.52380000
H      -45.89370000     -32.97490000     -71.37450000
C      -44.11510000     -31.97150000     -70.86010000
C      -43.90720000     -30.66000000     -70.52830000
C      -43.50980000     -32.93130000     -69.93910000
H      -44.20380000     -29.79540000     -71.15270000
C      -42.77900000     -32.19840000     -68.92320000
C      -43.50490000     -34.38520000     -69.60370000
C      -42.66170000     -34.64290000     -68.54600000
S      -42.70600000     -30.50270000     -69.25260000
S      -42.06390000     -33.16540000     -67.70770000
H      -42.59350000     -35.61480000     -68.01300000
