40
Properties=species:S:1:pos:R:3 #=T CELL(abcABC):=T 1.889726e+02=T 90.00000=T Traj:=T positionsangstrom=T Step:=T 0=T Bead:=T pbc="F F F"
C      -46.97870000     -35.81390000     -73.95530000
C      -47.86410000     -35.38140000     -72.95790000
C      -48.27800000     -34.01630000     -72.99210000
C      -47.96290000     -33.20620000     -74.04490000
C      -47.14570000     -33.70780000     -75.10370000
C      -46.57710000     -34.94910000     -75.00690000
H      -46.53110000     -36.82370000     -73.87010000
H      -48.82720000     -33.56390000     -72.09810000
H      -46.77280000     -32.95170000     -75.84940000
H      -45.87340000     -35.43420000     -75.69370000
C      -48.20950000     -31.68180000     -73.95570000
H      -49.28520000     -31.33510000     -73.83220000
H      -47.90250000     -31.09070000     -74.81450000
C      -48.23110000     -36.26600000     -71.74200000
H      -48.94060000     -35.82770000     -71.09920000
H      -48.60750000     -37.17830000     -72.16840000
S      -47.34140000     -30.96840000     -72.45210000
S      -46.59570000     -36.93590000     -70.87590000
C      -45.57180000     -31.29840000     -72.93260000
H      -45.61600000     -31.66290000     -73.97050000
H      -45.01830000     -30.39770000     -72.94910000
C      -45.78880000     -35.38530000     -70.07840000
H      -45.95070000     -35.58990000     -69.05520000
H      -46.21000000     -34.42770000     -70.38040000
C      -44.37410000     -35.30360000     -70.51610000
H      -43.86130000     -36.27380000     -70.39460000
H      -44.34960000     -35.18720000     -71.60590000
C      -44.96300000     -32.34980000     -71.91920000
H      -44.25470000     -32.93670000     -72.53600000
H      -45.77440000     -33.03140000     -71.68040000
C      -44.14150000     -31.80420000     -70.80120000
C      -43.82040000     -30.48640000     -70.50440000
C      -43.50640000     -32.74050000     -69.84700000
H      -44.27090000     -29.59000000     -70.87960000
C      -42.66920000     -32.08650000     -68.99470000
C      -43.51070000     -34.21500000     -69.74440000
C      -42.58480000     -34.63540000     -68.84580000
S      -42.57010000     -30.41360000     -69.29800000
S      -41.76510000     -33.28600000     -68.04440000
H      -42.30430000     -35.62150000     -68.63480000
