40
Properties=species:S:1:pos:R:3 #=T CELL(abcABC):=T 1.889726e+02=T 90.00000=T Traj:=T positionsangstrom=T Step:=T 0=T Bead:=T pbc="F F F"
C      -46.96990000     -35.91230000     -73.67300000
C      -47.70890000     -35.48020000     -72.54370000
C      -48.12610000     -34.16560000     -72.41610000
C      -47.86450000     -33.22350000     -73.45820000
C      -47.23160000     -33.71270000     -74.59640000
C      -46.84590000     -35.04120000     -74.72540000
H      -46.60720000     -36.92890000     -73.79410000
H      -48.69080000     -33.98100000     -71.52310000
H      -47.08620000     -33.04530000     -75.49270000
H      -46.48250000     -35.34750000     -75.71460000
C      -48.40750000     -31.79450000     -73.31900000
H      -49.30710000     -31.73050000     -72.81910000
H      -48.63290000     -31.35130000     -74.26420000
C      -47.95840000     -36.37510000     -71.40140000
H      -48.72240000     -35.81980000     -70.77660000
H      -48.54290000     -37.30050000     -71.72400000
S      -47.27540000     -30.55290000     -72.52610000
S      -46.47530000     -37.08790000     -70.52080000
C      -45.67320000     -31.23430000     -73.08200000
H      -45.94390000     -31.56320000     -74.09170000
H      -45.04120000     -30.35690000     -73.17680000
C      -45.50150000     -35.55930000     -70.09160000
H      -45.23220000     -35.52660000     -68.97730000
H      -46.27300000     -34.75720000     -70.32510000
C      -44.16470000     -35.25620000     -70.86830000
H      -43.50240000     -36.12780000     -71.07500000
H      -44.35100000     -34.98390000     -71.91420000
C      -45.15480000     -32.36340000     -72.25050000
H      -44.46930000     -33.05730000     -72.79890000
H      -45.95650000     -32.98850000     -71.74820000
C      -44.30360000     -31.85980000     -71.13700000
C      -43.89650000     -30.55710000     -70.97640000
C      -43.52430000     -32.78230000     -70.27970000
H      -44.31240000     -29.63340000     -71.46210000
C      -42.65380000     -32.11050000     -69.38760000
C      -43.45850000     -34.19230000     -70.07050000
C      -42.62320000     -34.55810000     -69.04940000
S      -42.66600000     -30.35800000     -69.65420000
S      -41.86010000     -33.24900000     -68.23300000
H      -42.36910000     -35.61130000     -68.78380000
