40
Properties=species:S:1:pos:R:3 #=T CELL(abcABC):=T 1.889726e+02=T 90.00000=T Traj:=T positionsangstrom=T Step:=T 0=T Bead:=T pbc="F F F"
C      -46.34940000     -33.79400000     -66.84590000
C      -46.54720000     -32.95830000     -67.98860000
C      -45.43950000     -32.28370000     -68.59330000
C      -44.19240000     -32.50220000     -67.98600000
C      -44.02190000     -33.25310000     -66.73520000
C      -45.11460000     -33.89210000     -66.22390000
H      -47.15460000     -34.29250000     -66.36040000
H      -45.57280000     -31.54870000     -69.39750000
H      -43.03760000     -33.41900000     -66.25010000
H      -45.11090000     -34.60340000     -65.34760000
C      -42.94870000     -31.86550000     -68.58140000
H      -42.20980000     -31.75880000     -67.81590000
H      -43.21230000     -30.85350000     -68.84060000
C      -47.98620000     -32.93930000     -68.61030000
H      -48.61130000     -33.56210000     -67.94050000
H      -48.30630000     -31.90720000     -68.53790000
S      -42.13620000     -32.85890000     -69.93470000
S      -48.06250000     -33.45620000     -70.34170000
C      -43.13390000     -32.48910000     -71.42130000
H      -44.15530000     -32.46100000     -71.09980000
H      -42.93490000     -31.49730000     -71.81820000
C      -47.02090000     -35.07190000     -70.32630000
H      -47.71700000     -35.92190000     -70.65620000
H      -46.57790000     -35.27280000     -69.33960000
C      -45.82830000     -34.75940000     -71.21580000
H      -45.50060000     -33.79240000     -70.79220000
H      -45.05780000     -35.44610000     -71.19210000
C      -42.84140000     -33.61830000     -72.46340000
H      -42.98790000     -34.56000000     -71.96600000
H      -41.79810000     -33.53340000     -72.85710000
C      -43.74110000     -33.50310000     -73.60150000
C      -43.29080000     -32.98320000     -74.77240000
C      -45.15200000     -33.88960000     -73.60290000
H      -42.26070000     -32.69490000     -75.00160000
C      -45.75690000     -33.47190000     -74.78690000
C      -46.21120000     -34.45090000     -72.67440000
C      -47.43950000     -34.43170000     -73.24320000
S      -44.64900000     -32.85420000     -75.95450000
S      -47.47600000     -33.85010000     -74.89740000
H      -48.42550000     -34.54320000     -72.79270000
