40
Properties=species:S:1:pos:R:3 #=T CELL(abcABC):=T 1.889726e+02=T 90.00000=T Traj:=T positionsangstrom=T Step:=T 0=T Bead:=T pbc="F F F"
C      -46.29560000     -33.63360000     -66.76260000
C      -46.49870000     -32.85350000     -67.89890000
C      -45.43170000     -32.25460000     -68.56380000
C      -44.10460000     -32.45190000     -68.04800000
C      -43.87960000     -33.20290000     -66.89400000
C      -44.99890000     -33.82540000     -66.29080000
H      -47.05980000     -34.12270000     -66.17010000
H      -45.57850000     -31.73330000     -69.54810000
H      -42.94410000     -33.36530000     -66.37830000
H      -44.83060000     -34.30410000     -65.33590000
C      -43.02080000     -31.75890000     -68.78450000
H      -42.26970000     -31.18150000     -68.17420000
H      -43.45760000     -31.04060000     -69.44470000
C      -47.91770000     -32.72310000     -68.38660000
H      -48.62510000     -33.38530000     -67.93080000
H      -48.22600000     -31.66380000     -68.31820000
S      -42.04760000     -32.92110000     -69.83640000
S      -48.02260000     -33.38300000     -70.17410000
C      -42.93380000     -32.61890000     -71.47760000
H      -43.97190000     -32.38350000     -71.19040000
H      -42.47460000     -31.77440000     -71.97670000
C      -46.97340000     -34.90740000     -70.21400000
H      -47.62570000     -35.77240000     -70.24810000
H      -46.56960000     -35.07170000     -69.22930000
C      -45.84630000     -34.80210000     -71.25800000
H      -45.14300000     -34.04030000     -70.75070000
H      -45.32160000     -35.82280000     -71.26700000
C      -42.95880000     -33.78920000     -72.50050000
H      -43.37120000     -34.69700000     -72.04440000
H      -41.95150000     -34.13060000     -72.67060000
C      -43.80790000     -33.53810000     -73.72750000
C      -43.42140000     -33.14460000     -74.95770000
C      -45.21140000     -33.77510000     -73.64020000
H      -42.43250000     -33.03200000     -75.43450000
C      -45.85620000     -33.47230000     -74.85100000
C      -46.20740000     -34.38860000     -72.68700000
C      -47.47090000     -34.43580000     -73.13190000
S      -44.73760000     -33.00300000     -76.11230000
S      -47.59590000     -33.90300000     -74.82510000
H      -48.38860000     -35.00710000     -72.84250000
