40
Properties=species:S:1:pos:R:3 #=T CELL(abcABC):=T 1.889726e+02=T 90.00000=T Traj:=T positionsangstrom=T Step:=T 0=T Bead:=T pbc="F F F"
C      -46.75330000     -35.75250000     -74.17270000
C      -47.39600000     -35.28070000     -73.02600000
C      -47.78530000     -33.88690000     -72.93590000
C      -47.63870000     -33.05450000     -74.01590000
C      -47.09760000     -33.58610000     -75.18810000
C      -46.58480000     -34.86360000     -75.27800000
H      -46.65340000     -36.78120000     -74.25210000
H      -48.18960000     -33.53210000     -72.02080000
H      -47.03200000     -32.94610000     -76.02050000
H      -46.26360000     -35.19730000     -76.24840000
C      -48.15540000     -31.69550000     -73.91470000
H      -49.20230000     -31.69910000     -73.57750000
H      -48.16440000     -31.11450000     -74.82260000
C      -47.87410000     -36.14460000     -71.84050000
H      -48.43240000     -35.58230000     -71.08040000
H      -48.32440000     -36.98410000     -72.38440000
S      -47.21740000     -30.66840000     -72.68660000
S      -46.38570000     -37.09410000     -70.97540000
C      -45.53950000     -31.31540000     -73.00500000
H      -45.58040000     -31.93020000     -73.93270000
H      -44.82060000     -30.51140000     -73.16710000
C      -45.71840000     -35.67900000     -70.07690000
H      -45.67040000     -36.08890000     -69.08890000
H      -46.41470000     -34.84640000     -70.09920000
C      -44.25090000     -35.31050000     -70.60310000
H      -43.76400000     -36.28480000     -70.60680000
H      -44.23560000     -34.95640000     -71.62260000
C      -45.07210000     -32.36280000     -71.95300000
H      -44.49220000     -33.06870000     -72.50810000
H      -45.93120000     -32.94460000     -71.72310000
C      -44.21490000     -31.92240000     -70.83380000
C      -43.94800000     -30.61730000     -70.51030000
C      -43.65100000     -32.87870000     -69.91210000
H      -44.30520000     -29.73180000     -70.98620000
C      -42.84420000     -32.22540000     -68.91870000
C      -43.69800000     -34.29720000     -69.58970000
C      -42.86340000     -34.66810000     -68.55830000
S      -42.95760000     -30.43880000     -69.09910000
S      -42.12570000     -33.29310000     -67.74040000
H      -42.71600000     -35.66010000     -68.08750000
