40
Properties=species:S:1:pos:R:3 #=T CELL(abcABC):=T 1.889726e+02=T 90.00000=T Traj:=T positionsangstrom=T Step:=T 0=T Bead:=T pbc="F F F"
C      -46.99200000     -35.80200000     -74.05630000
C      -47.75170000     -35.33660000     -72.97450000
C      -48.16020000     -34.01060000     -73.01730000
C      -47.83180000     -33.13970000     -74.08150000
C      -47.06310000     -33.61900000     -75.15650000
C      -46.68740000     -34.95160000     -75.12240000
H      -46.55090000     -36.86130000     -74.04720000
H      -48.72900000     -33.57120000     -72.11990000
H      -46.92940000     -32.84770000     -76.02350000
H      -46.04830000     -35.44030000     -75.84730000
C      -48.32320000     -31.69870000     -74.01140000
H      -49.35730000     -31.66880000     -73.68460000
H      -48.18500000     -31.11820000     -74.92080000
C      -48.02840000     -36.16190000     -71.80580000
H      -48.43120000     -35.48820000     -70.97960000
H      -48.69810000     -37.04170000     -71.95500000
S      -47.42780000     -30.89740000     -72.56660000
S      -46.50480000     -36.81360000     -70.97340000
C      -45.60550000     -31.30020000     -72.87540000
H      -45.58250000     -31.72590000     -73.93780000
H      -44.96460000     -30.43820000     -72.81920000
C      -45.85230000     -35.34390000     -70.19260000
H      -46.09290000     -35.34620000     -69.08090000
H      -46.20210000     -34.42670000     -70.55920000
C      -44.33360000     -35.32240000     -70.33250000
H      -43.93210000     -36.33150000     -70.11030000
H      -44.09790000     -35.12920000     -71.36010000
C      -44.92950000     -32.45320000     -71.99990000
H      -44.34700000     -33.11080000     -72.66140000
H      -45.68350000     -33.00120000     -71.50770000
C      -44.01710000     -31.97400000     -70.91130000
C      -43.73730000     -30.67610000     -70.62480000
C      -43.53800000     -32.89430000     -69.86710000
H      -44.01180000     -29.79950000     -71.22190000
C      -42.75400000     -32.17630000     -68.97230000
C      -43.55290000     -34.30700000     -69.53690000
C      -42.72900000     -34.62970000     -68.50790000
S      -42.65450000     -30.45560000     -69.21820000
S      -41.79780000     -33.26130000     -67.88930000
H      -42.39070000     -35.57550000     -68.16170000
