40
Properties=species:S:1:pos:R:3 #=T CELL(abcABC):=T 1.889726e+02=T 90.00000=T Traj:=T positionsangstrom=T Step:=T 0=T Bead:=T pbc="F F F"
C      -46.44310000     -33.76350000     -66.72120000
C      -46.60950000     -33.06500000     -68.01640000
C      -45.50990000     -32.46640000     -68.60830000
C      -44.27480000     -32.52500000     -67.91170000
C      -44.05300000     -33.29290000     -66.75310000
C      -45.18290000     -33.87640000     -66.20170000
H      -47.20670000     -34.35790000     -66.20280000
H      -45.58040000     -32.08850000     -69.62520000
H      -43.02540000     -33.27980000     -66.26770000
H      -45.01800000     -34.49910000     -65.30840000
C      -43.07550000     -31.88260000     -68.46990000
H      -42.33880000     -31.84420000     -67.66420000
H      -43.26590000     -30.82880000     -68.92030000
C      -47.92160000     -32.79680000     -68.66250000
H      -48.76880000     -33.07630000     -68.03510000
H      -48.10220000     -31.72420000     -68.79490000
S      -42.11140000     -32.80710000     -69.75740000
S      -48.22930000     -33.42310000     -70.44070000
C      -43.11180000     -32.51310000     -71.27390000
H      -44.18760000     -32.52740000     -70.99170000
H      -42.85680000     -31.46390000     -71.60370000
C      -47.22470000     -35.02220000     -70.52710000
H      -47.97400000     -35.69680000     -70.95660000
H      -46.86890000     -35.27980000     -69.51780000
C      -45.95050000     -35.04570000     -71.37370000
H      -45.20940000     -34.49060000     -70.85410000
H      -45.48240000     -36.08430000     -71.32220000
C      -42.81020000     -33.56640000     -72.34570000
H      -43.05510000     -34.58160000     -71.98170000
H      -41.78230000     -33.45900000     -72.65280000
C      -43.69910000     -33.36480000     -73.54440000
C      -43.26340000     -32.82630000     -74.78030000
C      -45.06960000     -33.86070000     -73.62810000
H      -42.33050000     -32.27910000     -74.81020000
C      -45.62170000     -33.48860000     -74.87120000
C      -46.07020000     -34.44720000     -72.80540000
C      -47.34240000     -34.46550000     -73.29660000
S      -44.52700000     -32.77620000     -75.92040000
S      -47.35500000     -33.95100000     -74.95680000
H      -48.19500000     -34.74680000     -72.76930000
