40
Properties=species:S:1:pos:R:3 #=T CELL(abcABC):=T 1.889726e+02=T 90.00000=T Traj:=T positionsangstrom=T Step:=T 0=T Bead:=T pbc="F F F"
C      -46.86090000     -34.38890000     -67.34570000
C      -47.03890000     -33.33760000     -68.28400000
C      -45.94080000     -32.44190000     -68.43650000
C      -44.76910000     -32.63710000     -67.70470000
C      -44.59790000     -33.67660000     -66.78650000
C      -45.67800000     -34.60740000     -66.63520000
H      -47.75280000     -35.07620000     -67.25090000
H      -46.07250000     -31.61020000     -69.10220000
H      -43.63570000     -33.89300000     -66.21550000
H      -45.51910000     -35.52850000     -66.02280000
C      -43.58760000     -31.78520000     -68.05850000
H      -42.97590000     -31.52970000     -67.22840000
H      -43.87680000     -30.99260000     -68.66930000
C      -48.24970000     -33.24770000     -69.04600000
H      -49.01680000     -33.90680000     -68.50220000
H      -48.71120000     -32.21100000     -69.01670000
S      -42.51830000     -32.83070000     -69.20810000
S      -48.13270000     -33.67090000     -70.82490000
C      -43.38870000     -32.61690000     -70.78390000
H      -44.44690000     -32.78790000     -70.53910000
H      -43.34360000     -31.59670000     -71.02540000
C      -47.24620000     -35.39640000     -71.01830000
H      -47.95450000     -35.97040000     -71.73460000
H      -47.18700000     -35.86750000     -70.06690000
C      -45.87700000     -35.21060000     -71.66630000
H      -45.08140000     -34.82520000     -71.03660000
H      -45.58940000     -36.26050000     -71.94240000
C      -42.89110000     -33.54090000     -71.85690000
H      -43.06110000     -34.58480000     -71.57260000
H      -41.81190000     -33.43450000     -71.99640000
C      -43.48330000     -33.20500000     -73.19620000
C      -42.89040000     -32.35060000     -74.10130000
C      -44.77240000     -33.69880000     -73.59700000
H      -42.08340000     -31.73770000     -74.14080000
C      -45.10600000     -33.19300000     -74.86220000
C      -45.86350000     -34.39610000     -72.98830000
C      -47.01650000     -34.34980000     -73.82030000
S      -43.94610000     -32.09530000     -75.51190000
S      -46.71730000     -33.54280000     -75.33560000
H      -47.91000000     -34.92580000     -73.68530000
