40
Properties=species:S:1:pos:R:3 #=T CELL(abcABC):=T 1.889726e+02=T 90.00000=T Traj:=T positionsangstrom=T Step:=T 0=T Bead:=T pbc="F F F"
C      -46.96660000     -34.25240000     -67.06880000
C      -47.02670000     -33.25200000     -68.13250000
C      -45.88690000     -32.54520000     -68.42350000
C      -44.66030000     -32.76640000     -67.79270000
C      -44.55910000     -33.73680000     -66.80210000
C      -45.71710000     -34.40810000     -66.38450000
H      -47.86780000     -34.85460000     -66.85490000
H      -45.97250000     -31.75460000     -69.21860000
H      -43.67700000     -34.00090000     -66.35320000
H      -45.69900000     -35.24760000     -65.65730000
C      -43.44310000     -31.87910000     -68.04200000
H      -42.82080000     -31.91490000     -67.16870000
H      -43.66530000     -30.86090000     -68.32530000
C      -48.26930000     -33.00430000     -69.04720000
H      -49.17920000     -33.57540000     -68.72460000
H      -48.55960000     -31.92860000     -69.05790000
S      -42.30280000     -32.54400000     -69.33970000
S      -47.92050000     -33.48840000     -70.81160000
C      -43.10600000     -32.27390000     -70.97240000
H      -44.16760000     -32.22680000     -70.87460000
H      -42.79190000     -31.29560000     -71.43610000
C      -47.42070000     -35.24060000     -70.91690000
H      -48.02490000     -35.74010000     -71.63270000
H      -47.49270000     -35.74390000     -69.90330000
C      -45.99150000     -35.20590000     -71.51420000
H      -45.18280000     -34.86480000     -70.81390000
H      -45.68380000     -36.28490000     -71.63030000
C      -42.80160000     -33.38820000     -71.95950000
H      -42.98170000     -34.39130000     -71.58470000
H      -41.74960000     -33.40380000     -72.30870000
C      -43.54150000     -33.20640000     -73.27390000
C      -43.03860000     -32.48270000     -74.30170000
C      -44.90660000     -33.65470000     -73.56480000
H      -42.02580000     -32.04050000     -74.40720000
C      -45.27380000     -33.29310000     -74.84630000
C      -45.91370000     -34.53990000     -72.89570000
C      -47.03380000     -34.62760000     -73.67540000
S      -44.13980000     -32.30910000     -75.68250000
S      -46.85370000     -33.97010000     -75.27140000
H      -48.03160000     -34.98990000     -73.48690000
