40
Properties=species:S:1:pos:R:3 #=T CELL(abcABC):=T 1.889726e+02=T 90.00000=T Traj:=T positionsangstrom=T Step:=T 0=T Bead:=T pbc="F F F"
C      -46.44380000     -34.05780000     -66.90360000
C      -46.63950000     -33.15690000     -67.93690000
C      -45.57540000     -32.30910000     -68.30630000
C      -44.31220000     -32.40750000     -67.66590000
C      -44.07790000     -33.34410000     -66.64740000
C      -45.16410000     -34.08480000     -66.20650000
H      -47.24310000     -34.76250000     -66.67320000
H      -45.84360000     -31.60300000     -69.13390000
H      -43.17480000     -33.32430000     -66.13280000
H      -44.98790000     -34.79980000     -65.38070000
C      -43.22270000     -31.63970000     -68.39540000
H      -42.43100000     -31.22850000     -67.62710000
H      -43.68390000     -30.75280000     -68.88200000
C      -47.95560000     -33.02510000     -68.60270000
H      -48.58740000     -33.77460000     -68.11940000
H      -48.28470000     -32.01150000     -68.52050000
S      -42.37340000     -32.81630000     -69.59890000
S      -47.99890000     -33.30420000     -70.44750000
C      -43.27310000     -32.50280000     -71.15500000
H      -44.37730000     -32.32250000     -70.99120000
H      -42.90570000     -31.48080000     -71.53850000
C      -47.23380000     -34.96850000     -70.61120000
H      -47.94500000     -35.65930000     -71.07290000
H      -46.97340000     -35.22940000     -69.53890000
C      -45.99800000     -34.96340000     -71.45330000
H      -45.35430000     -34.19470000     -70.92440000
H      -45.58570000     -35.95780000     -71.39920000
C      -43.09390000     -33.63570000     -72.18620000
H      -43.52850000     -34.57420000     -71.82010000
H      -42.05700000     -33.90740000     -72.37730000
C      -43.77110000     -33.29910000     -73.42740000
C      -43.21590000     -32.66490000     -74.52760000
C      -45.13160000     -33.78330000     -73.74280000
H      -42.21440000     -32.27460000     -74.62460000
C      -45.48810000     -33.59180000     -75.01510000
C      -46.16230000     -34.48180000     -72.92370000
C      -47.35160000     -34.60190000     -73.61450000
S      -44.33520000     -32.64940000     -75.91650000
S      -47.11920000     -34.07210000     -75.29540000
H      -48.22640000     -35.15260000     -73.29580000
