40
Properties=species:S:1:pos:R:3 #=T CELL(abcABC):=T 1.889726e+02=T 90.00000=T Traj:=T positionsangstrom=T Step:=T 0=T Bead:=T pbc="F F F"
C      -46.25410000     -35.69790000     -68.13810000
C      -46.85000000     -34.45150000     -68.50130000
C      -45.92310000     -33.32910000     -68.46180000
C      -44.61150000     -33.34800000     -67.91490000
C      -44.12900000     -34.63210000     -67.47400000
C      -44.93170000     -35.73650000     -67.66840000
H      -46.76220000     -36.61820000     -68.25910000
H      -46.24770000     -32.38660000     -68.91720000
H      -43.22870000     -34.65790000     -66.85500000
H      -44.52350000     -36.66820000     -67.34910000
C      -43.67190000     -32.19390000     -67.78340000
H      -43.19320000     -32.24020000     -66.86280000
H      -44.23070000     -31.25260000     -67.94740000
C      -48.32960000     -34.21610000     -68.83240000
H      -48.85970000     -35.11450000     -68.50690000
H      -48.67870000     -33.39490000     -68.21290000
S      -42.30970000     -32.15150000     -68.99450000
S      -48.67610000     -34.07870000     -70.65130000
C      -43.10970000     -31.88170000     -70.69130000
H      -44.13440000     -31.46080000     -70.68980000
H      -42.48870000     -31.08640000     -71.29750000
C      -47.52620000     -35.36340000     -71.35390000
H      -47.79400000     -35.75880000     -72.36230000
H      -47.50600000     -36.19400000     -70.61750000
C      -46.19070000     -34.64360000     -71.62360000
H      -45.95430000     -33.87400000     -70.87830000
H      -45.34350000     -35.34950000     -71.65880000
C      -43.18560000     -33.23190000     -71.47160000
H      -43.92060000     -33.80780000     -70.91300000
H      -42.23410000     -33.70850000     -71.43250000
C      -43.68990000     -32.93000000     -72.90470000
C      -42.95820000     -32.06830000     -73.75520000
C      -44.95720000     -33.24570000     -73.47430000
H      -42.04000000     -31.53790000     -73.62570000
C      -45.12720000     -32.69690000     -74.77510000
C      -46.22870000     -33.90590000     -73.02950000
C      -47.22650000     -33.74160000     -73.92820000
S      -43.70290000     -31.77840000     -75.26750000
S      -46.78030000     -32.83980000     -75.35590000
H      -48.22320000     -34.17730000     -73.81830000
