40
Properties=species:S:1:pos:R:3 #=T CELL(abcABC):=T 1.889726e+02=T 90.00000=T Traj:=T positionsangstrom=T Step:=T 0=T Bead:=T pbc="F F F"
C      -46.50400000     -35.39740000     -67.86510000
C      -46.91870000     -34.15820000     -68.28840000
C      -45.96390000     -33.10720000     -68.29630000
C      -44.66070000     -33.29180000     -67.90980000
C      -44.22720000     -34.64240000     -67.58980000
C      -45.21190000     -35.55940000     -67.50160000
H      -47.19660000     -36.25290000     -67.96610000
H      -46.31970000     -32.09850000     -68.40370000
H      -43.21210000     -34.84330000     -67.22180000
H      -44.88910000     -36.49890000     -67.09090000
C      -43.67980000     -32.11980000     -67.74010000
H      -43.04760000     -32.19540000     -66.80050000
H      -44.23440000     -31.17950000     -67.71570000
C      -48.36280000     -33.92200000     -68.70300000
H      -49.03570000     -34.61070000     -68.26850000
H      -48.65500000     -32.96960000     -68.37150000
S      -42.47340000     -32.11640000     -69.16030000
S      -48.51430000     -34.02610000     -70.58100000
C      -43.62940000     -32.14020000     -70.63660000
H      -44.70210000     -32.37040000     -70.41810000
H      -43.67930000     -31.11170000     -70.90170000
C      -47.28710000     -35.32480000     -71.06780000
H      -47.74210000     -35.78710000     -71.93390000
H      -47.12870000     -36.02850000     -70.25830000
C      -45.96880000     -34.65620000     -71.57590000
H      -45.60470000     -33.89100000     -70.88430000
H      -45.31420000     -35.46190000     -71.71240000
C      -42.98780000     -33.11050000     -71.63460000
H      -43.25190000     -34.17730000     -71.32980000
H      -41.90770000     -32.85210000     -71.69030000
C      -43.53940000     -32.93810000     -73.07450000
C      -42.87470000     -32.19830000     -74.01190000
C      -44.91310000     -33.15320000     -73.42660000
H      -41.85320000     -31.83490000     -74.01380000
C      -45.13560000     -32.73180000     -74.74630000
C      -46.03190000     -33.97230000     -72.94720000
C      -47.02230000     -33.98090000     -73.91820000
S      -43.75950000     -32.00440000     -75.45010000
S      -46.70060000     -33.06220000     -75.44180000
H      -48.04380000     -34.48530000     -73.74770000
