40
Properties=species:S:1:pos:R:3 #=T CELL(abcABC):=T 1.889726e+02=T 90.00000=T Traj:=T positionsangstrom=T Step:=T 0=T Bead:=T pbc="F F F"
C      -47.52260000     -36.35920000     -71.83110000
C      -47.34870000     -35.36190000     -72.84940000
C      -46.09270000     -35.22680000     -73.48340000
C      -45.09930000     -36.19970000     -73.35690000
C      -45.31160000     -37.24760000     -72.40550000
C      -46.46990000     -37.20590000     -71.57390000
H      -48.32640000     -36.38820000     -71.13990000
H      -45.93650000     -34.36950000     -74.15700000
H      -44.47460000     -37.97030000     -72.34630000
H      -46.60400000     -38.08750000     -70.92140000
C      -43.89230000     -36.21940000     -74.28020000
H      -44.07980000     -36.32500000     -75.29690000
H      -43.17380000     -37.10510000     -74.04660000
C      -48.38920000     -34.40370000     -73.33960000
H      -48.04920000     -33.64070000     -74.08020000
H      -49.28050000     -34.92710000     -73.78480000
S      -43.08360000     -34.50550000     -74.16910000
S      -49.14760000     -33.53510000     -71.83140000
C      -42.80000000     -34.12940000     -72.37200000
H      -42.49940000     -35.06070000     -71.90870000
H      -41.97990000     -33.43390000     -72.42510000
C      -47.65480000     -33.08200000     -70.85230000
H      -46.92610000     -33.91580000     -70.89760000
H      -48.18100000     -32.77890000     -69.90800000
C      -46.94750000     -31.77810000     -71.36960000
H      -46.67190000     -31.98630000     -72.45700000
H      -47.77810000     -31.10340000     -71.46420000
C      -43.96700000     -33.64490000     -71.61350000
H      -44.48310000     -34.61210000     -71.38230000
H      -44.59990000     -33.02790000     -72.25670000
C      -43.69830000     -32.79380000     -70.44100000
C      -42.53980000     -32.79910000     -69.67380000
C      -44.65530000     -31.79670000     -69.98570000
H      -41.70600000     -33.47730000     -69.80850000
C      -44.11730000     -31.10180000     -68.92120000
C      -45.92070000     -31.25470000     -70.44800000
C      -46.27150000     -30.16310000     -69.67810000
S      -42.46720000     -31.49080000     -68.42610000
S      -45.13970000     -29.75470000     -68.39810000
H      -47.24690000     -29.62200000     -69.83990000
