40
Properties=species:S:1:pos:R:3 #=T CELL(abcABC):=T 1.889726e+02=T 90.00000=T Traj:=T positionsangstrom=T Step:=T 0=T Bead:=T pbc="F F F"
C      -46.65310000     -35.25580000     -67.82190000
C      -47.08480000     -34.00720000     -68.25030000
C      -46.18330000     -32.96040000     -68.24980000
C      -44.82630000     -33.14690000     -67.82940000
C      -44.48250000     -34.36020000     -67.26650000
C      -45.39290000     -35.41760000     -67.32920000
H      -47.29000000     -36.12050000     -67.83810000
H      -46.34300000     -31.97530000     -68.72000000
H      -43.47090000     -34.56520000     -66.92090000
H      -45.01670000     -36.37960000     -66.99550000
C      -43.81110000     -32.02010000     -67.88830000
H      -43.31650000     -31.86570000     -66.91870000
H      -44.31730000     -31.06210000     -68.16460000
C      -48.47380000     -33.77290000     -68.86340000
H      -49.09910000     -34.53380000     -68.40060000
H      -48.91940000     -32.83480000     -68.55820000
S      -42.50860000     -32.51520000     -69.12670000
S      -48.41470000     -33.89880000     -70.71990000
C      -43.34080000     -32.06200000     -70.68240000
H      -44.36460000     -32.20350000     -70.56430000
H      -43.02030000     -31.03470000     -70.92580000
C      -47.18580000     -35.26190000     -71.01280000
H      -47.50830000     -35.99240000     -71.73380000
H      -47.18800000     -35.83560000     -70.07520000
C      -45.85850000     -34.63590000     -71.44430000
H      -45.51780000     -33.96260000     -70.73690000
H      -45.09350000     -35.37480000     -71.41330000
C      -42.74630000     -32.98910000     -71.76370000
H      -42.74980000     -34.05040000     -71.47190000
H      -41.63250000     -32.79250000     -71.88050000
C      -43.48100000     -32.77840000     -73.07910000
C      -42.75370000     -32.30740000     -74.15720000
C      -44.81580000     -33.13780000     -73.47200000
H      -41.75400000     -31.98140000     -74.13390000
C      -45.16680000     -32.75060000     -74.77770000
C      -45.91140000     -33.92090000     -72.81360000
C      -46.93720000     -34.15080000     -73.75540000
S      -43.76090000     -32.07310000     -75.64110000
S      -46.73510000     -33.31940000     -75.32000000
H      -47.90960000     -34.57600000     -73.40930000
