40
Properties=species:S:1:pos:R:3 #=T CELL(abcABC):=T 1.889726e+02=T 90.00000=T Traj:=T positionsangstrom=T Step:=T 0=T Bead:=T pbc="F F F"
C      -46.90040000     -35.03740000     -67.49320000
C      -47.13440000     -33.87500000     -68.26890000
C      -46.11890000     -32.91880000     -68.42750000
C      -44.86250000     -33.07650000     -67.79300000
C      -44.71830000     -34.18440000     -66.93340000
C      -45.75840000     -35.15970000     -66.77820000
H      -47.81970000     -35.74650000     -67.34310000
H      -46.24030000     -32.07920000     -69.07530000
H      -43.81230000     -34.37490000     -66.38590000
H      -45.54450000     -36.03940000     -66.19860000
C      -43.77280000     -32.07270000     -68.03170000
H      -43.22220000     -31.81270000     -67.12640000
H      -44.21230000     -31.15010000     -68.33850000
C      -48.51820000     -33.67590000     -68.87410000
H      -49.27830000     -34.35970000     -68.50560000
H      -48.82820000     -32.62010000     -68.71750000
S      -42.43720000     -32.50160000     -69.25630000
S      -48.48150000     -33.82070000     -70.75570000
C      -43.05740000     -32.10290000     -70.92290000
H      -44.14230000     -31.96460000     -70.81590000
H      -42.66780000     -31.14070000     -71.25720000
C      -47.21820000     -35.17510000     -71.10710000
H      -47.76000000     -35.80730000     -71.87030000
H      -47.09590000     -35.81450000     -70.26710000
C      -45.86720000     -34.81970000     -71.59740000
H      -45.37070000     -34.17300000     -70.90560000
H      -45.33400000     -35.70060000     -71.63560000
C      -42.62980000     -33.27770000     -71.78330000
H      -42.95670000     -34.24950000     -71.36530000
H      -41.55560000     -33.27860000     -72.03700000
C      -43.32430000     -33.14810000     -73.17750000
C      -42.68790000     -32.39580000     -74.09240000
C      -44.72540000     -33.46370000     -73.57170000
H      -41.58590000     -32.18060000     -73.89220000
C      -45.08080000     -32.81720000     -74.74870000
C      -45.84440000     -34.18970000     -72.96470000
C      -46.95560000     -34.22380000     -73.80350000
S      -43.75600000     -31.95030000     -75.47130000
S      -46.69480000     -33.27500000     -75.33740000
H      -47.83790000     -34.80820000     -73.75550000
