40
Properties=species:S:1:pos:R:3 #=T CELL(abcABC):=T 1.889726e+02=T 90.00000=T Traj:=T positionsangstrom=T Step:=T 0=T Bead:=T pbc="F F F"
C      -45.46940000     -35.64580000     -74.84450000
C      -46.57070000     -35.27520000     -74.10130000
C      -46.85680000     -33.91220000     -73.91590000
C      -46.07460000     -32.91900000     -74.54140000
C      -44.93840000     -33.36110000     -75.35300000
C      -44.67600000     -34.68820000     -75.48150000
H      -45.33400000     -36.74990000     -75.03830000
H      -47.63260000     -33.52610000     -73.24030000
H      -44.49570000     -32.61520000     -76.05760000
H      -43.98480000     -34.99460000     -76.17150000
C      -46.38500000     -31.46750000     -74.32420000
H      -47.41770000     -31.18310000     -74.48120000
H      -45.70940000     -30.86450000     -74.96950000
C      -47.43910000     -36.31080000     -73.39810000
H      -48.42450000     -35.87760000     -73.09890000
H      -47.72270000     -37.07410000     -74.08560000
S      -45.83570000     -31.06370000     -72.60950000
S      -46.62330000     -37.10110000     -71.87740000
C      -44.00580000     -31.38890000     -72.76770000
H      -43.96610000     -31.83550000     -73.70720000
H      -43.52380000     -30.40900000     -72.86500000
C      -46.66440000     -35.72310000     -70.55080000
H      -46.41540000     -36.39190000     -69.72700000
H      -47.74670000     -35.39690000     -70.38460000
C      -45.71470000     -34.61690000     -70.77740000
H      -44.83390000     -34.95550000     -71.24510000
H      -46.27800000     -33.87850000     -71.43590000
C      -43.48620000     -32.31300000     -71.73820000
H      -42.39660000     -32.38350000     -72.03310000
H      -43.88290000     -33.33260000     -71.97680000
C      -43.67280000     -31.97550000     -70.25990000
C      -42.92600000     -31.04120000     -69.64760000
C      -44.50970000     -32.75140000     -69.39240000
H      -42.13640000     -30.34500000     -70.08380000
C      -44.49830000     -32.25220000     -68.05930000
C      -45.38140000     -33.90530000     -69.45000000
C      -46.03760000     -34.11640000     -68.29320000
S      -43.19600000     -31.09180000     -67.91520000
S      -45.55860000     -33.03700000     -66.93630000
H      -46.74810000     -34.99270000     -68.07750000
