40
Properties=species:S:1:pos:R:3 #=T CELL(abcABC):=T 1.889726e+02=T 90.00000=T Traj:=T positionsangstrom=T Step:=T 0=T Bead:=T pbc="F F F"
C      -45.98970000     -32.11940000     -75.42170000
C      -45.95020000     -31.37030000     -74.20420000
C      -46.99620000     -31.56460000     -73.28520000
C      -47.94750000     -32.57660000     -73.42090000
C      -47.87360000     -33.42210000     -74.56200000
C      -46.95880000     -33.11680000     -75.59510000
H      -45.16610000     -32.05270000     -76.18740000
H      -46.97780000     -30.89210000     -72.27740000
H      -48.47420000     -34.27580000     -74.63400000
H      -46.97010000     -33.72420000     -76.49710000
C      -48.99660000     -32.82100000     -72.40510000
H      -49.48660000     -33.76660000     -72.66470000
H      -49.77920000     -32.05830000     -72.56170000
C      -44.75820000     -30.36920000     -74.04930000
H      -43.91180000     -30.72970000     -74.72550000
H      -45.05600000     -29.41550000     -74.48530000
S      -48.58120000     -32.56970000     -70.61850000
S      -44.14700000     -29.99260000     -72.35460000
C      -47.30450000     -33.89910000     -70.31330000
H      -47.75400000     -34.85390000     -70.22040000
H      -46.56410000     -33.90480000     -71.12810000
C      -43.44110000     -31.65630000     -71.86840000
H      -42.63790000     -31.26850000     -71.13430000
H      -42.99320000     -32.06720000     -72.76370000
C      -44.47010000     -32.62210000     -71.26430000
H      -44.97880000     -32.24550000     -70.43000000
H      -45.19090000     -32.87440000     -72.06580000
C      -46.61530000     -33.69480000     -69.01750000
H      -47.29950000     -33.81950000     -68.18830000
H      -46.34710000     -32.61900000     -68.96670000
C      -45.41980000     -34.64880000     -68.88280000
C      -45.48200000     -35.69320000     -67.99680000
C      -44.19730000     -34.65900000     -69.65180000
H      -46.25310000     -35.94880000     -67.25850000
C      -43.32320000     -35.69300000     -69.29940000
C      -43.68110000     -33.92200000     -70.77060000
C      -42.36420000     -34.31830000     -71.18290000
S      -43.97840000     -36.65240000     -67.93450000
S      -41.80450000     -35.65470000     -70.15060000
H      -41.77580000     -33.85200000     -71.92620000
