40
Properties=species:S:1:pos:R:3 #=T CELL(abcABC):=T 1.889726e+02=T 90.00000=T Traj:=T positionsangstrom=T Step:=T 0=T Bead:=T pbc="F F F"
C      -45.72470000     -36.17880000     -68.40860000
C      -46.30890000     -34.94690000     -68.88810000
C      -45.52030000     -33.79040000     -68.82940000
C      -44.20300000     -33.87780000     -68.34800000
C      -43.63190000     -35.07460000     -67.91050000
C      -44.44990000     -36.22790000     -67.81040000
H      -46.38570000     -37.02010000     -68.42820000
H      -45.81750000     -32.76270000     -69.10360000
H      -42.60380000     -35.12910000     -67.43580000
H      -44.11100000     -37.05450000     -67.21300000
C      -43.36710000     -32.63520000     -68.20330000
H      -43.23900000     -32.41630000     -67.17110000
H      -43.85280000     -31.69380000     -68.56120000
C      -47.78870000     -34.90350000     -69.10590000
H      -48.23710000     -35.73770000     -68.53880000
H      -48.16580000     -33.90440000     -68.64100000
S      -41.77430000     -32.54030000     -69.15630000
S      -48.38460000     -34.91840000     -70.90970000
C      -42.38060000     -31.86590000     -70.85350000
H      -42.66850000     -30.85180000     -70.63190000
H      -41.52760000     -31.75950000     -71.49750000
C      -47.00420000     -35.92490000     -71.64770000
H      -47.50250000     -36.61760000     -72.33800000
H      -46.60200000     -36.63830000     -70.94660000
C      -45.85040000     -35.11700000     -72.27700000
H      -45.35260000     -34.66060000     -71.41750000
H      -45.05460000     -35.74990000     -72.74060000
C      -43.46420000     -32.79330000     -71.45730000
H      -44.22790000     -33.07800000     -70.62600000
H      -43.04510000     -33.71550000     -71.72680000
C      -44.20370000     -32.13230000     -72.59460000
C      -43.73820000     -31.00910000     -73.27780000
C      -45.50560000     -32.62760000     -73.15090000
H      -42.81430000     -30.46130000     -73.20730000
C      -46.03620000     -31.70220000     -74.03250000
C      -46.26590000     -33.88610000     -73.13060000
C      -47.32910000     -33.82580000     -73.96320000
S      -44.92450000     -30.40740000     -74.38200000
S      -47.37680000     -32.38440000     -74.90330000
H      -47.98720000     -34.69490000     -74.07010000
