40
Properties=species:S:1:pos:R:3 #=T CELL(abcABC):=T 1.889726e+02=T 90.00000=T Traj:=T positionsangstrom=T Step:=T 0=T Bead:=T pbc="F F F"
C      -45.84460000     -36.11170000     -68.26360000
C      -46.46970000     -34.92770000     -68.68510000
C      -45.78960000     -33.70050000     -68.60610000
C      -44.46330000     -33.75400000     -68.24760000
C      -43.81370000     -34.91800000     -67.82570000
C      -44.51830000     -36.13340000     -67.82640000
H      -46.32480000     -37.09590000     -68.25530000
H      -46.31080000     -32.74790000     -68.91450000
H      -42.72950000     -34.77310000     -67.52810000
H      -44.09660000     -37.15300000     -67.52250000
C      -43.56790000     -32.47060000     -68.21780000
H      -43.27060000     -32.41480000     -67.17190000
H      -44.09990000     -31.58130000     -68.59710000
C      -47.93830000     -34.84850000     -69.08370000
H      -48.47380000     -35.60970000     -68.61480000
H      -48.42050000     -33.93050000     -68.80440000
S      -41.92140000     -32.58860000     -69.11310000
S      -48.25170000     -34.99260000     -70.93620000
C      -42.37390000     -32.01300000     -70.73770000
H      -42.65600000     -30.96570000     -70.64380000
H      -41.46250000     -32.03920000     -71.35260000
C      -47.00270000     -35.90630000     -71.87430000
H      -47.51680000     -36.20120000     -72.76030000
H      -46.70090000     -36.81850000     -71.28200000
C      -45.80010000     -35.07730000     -72.27890000
H      -45.45560000     -34.62320000     -71.32660000
H      -45.03260000     -35.73890000     -72.63680000
C      -43.49870000     -32.81330000     -71.47570000
H      -44.36330000     -33.02030000     -70.78600000
H      -43.00300000     -33.73740000     -71.75630000
C      -44.11770000     -32.15570000     -72.64920000
C      -43.70420000     -30.96490000     -73.17380000
C      -45.25080000     -32.76790000     -73.34120000
H      -42.94100000     -30.31150000     -72.67640000
C      -45.74600000     -31.91290000     -74.29870000
C      -46.08870000     -33.90210000     -73.17450000
C      -47.28750000     -33.74080000     -73.79580000
S      -44.71890000     -30.45780000     -74.49790000
S      -47.32350000     -32.38500000     -74.92490000
H      -48.12360000     -34.44240000     -73.79380000
