40
Properties=species:S:1:pos:R:3 #=T CELL(abcABC):=T 1.889726e+02=T 90.00000=T Traj:=T positionsangstrom=T Step:=T 0=T Bead:=T pbc="F F F"
C      -47.38080000     -36.39480000     -72.05780000
C      -47.31870000     -35.40720000     -73.04240000
C      -46.20250000     -35.31100000     -73.89610000
C      -45.04110000     -36.15980000     -73.62040000
C      -45.08910000     -37.06300000     -72.50830000
C      -46.31800000     -37.21780000     -71.84110000
H      -48.32480000     -36.52630000     -71.55620000
H      -46.19590000     -34.71360000     -74.75740000
H      -44.21980000     -37.73720000     -72.27180000
H      -46.55340000     -37.97220000     -71.10250000
C      -43.67850000     -36.03890000     -74.20910000
H      -43.68060000     -36.29030000     -75.28000000
H      -42.97130000     -36.70560000     -73.77060000
C      -48.50210000     -34.46040000     -73.22850000
H      -48.25020000     -33.69920000     -73.94600000
H      -49.33000000     -35.03380000     -73.57670000
S      -43.00750000     -34.35140000     -74.16490000
S      -49.09040000     -33.67300000     -71.68150000
C      -42.73180000     -34.09110000     -72.40180000
H      -42.32990000     -35.03220000     -71.95960000
H      -41.97210000     -33.24330000     -72.33210000
C      -47.62340000     -33.14360000     -70.76200000
H      -47.00660000     -33.98540000     -70.69990000
H      -47.92600000     -33.03840000     -69.71990000
C      -46.90690000     -31.88550000     -71.40420000
H      -46.30430000     -32.14160000     -72.24440000
H      -47.60860000     -31.12720000     -71.84250000
C      -43.96610000     -33.73730000     -71.58520000
H      -44.43440000     -34.61870000     -71.14320000
H      -44.80600000     -33.47810000     -72.22360000
C      -43.77270000     -32.67880000     -70.45020000
C      -42.59930000     -32.69460000     -69.72900000
C      -44.73290000     -31.71870000     -69.84570000
H      -41.69700000     -33.22780000     -70.08080000
C      -44.19840000     -31.04270000     -68.77050000
C      -46.03180000     -31.27780000     -70.28420000
C      -46.48620000     -30.24130000     -69.48650000
S      -42.57910000     -31.62490000     -68.36100000
S      -45.23590000     -29.69910000     -68.37370000
H      -47.41620000     -29.70300000     -69.64130000
