40
Properties=species:S:1:pos:R:3 #=T CELL(abcABC):=T 1.889726e+02=T 90.00000=T Traj:=T positionsangstrom=T Step:=T 0=T Bead:=T pbc="F F F"
C      -45.76220000     -36.22650000     -68.39670000
C      -46.25130000     -34.94780000     -68.73610000
C      -45.37340000     -33.84240000     -68.74390000
C      -44.05360000     -33.99280000     -68.38430000
C      -43.53760000     -35.28970000     -68.09610000
C      -44.37200000     -36.36430000     -68.13390000
H      -46.46180000     -37.03760000     -68.41030000
H      -45.78460000     -32.88670000     -68.92980000
H      -42.47660000     -35.43680000     -68.00440000
H      -43.81320000     -37.21860000     -67.99620000
C      -43.26450000     -32.71080000     -68.16710000
H      -42.81540000     -32.72560000     -67.12690000
H      -43.94290000     -31.85940000     -68.36600000
C      -47.71650000     -34.85870000     -69.00050000
H      -48.23380000     -35.63810000     -68.51890000
H      -48.10480000     -33.96250000     -68.58100000
S      -41.79750000     -32.55410000     -69.27800000
S      -48.24200000     -34.73830000     -70.78550000
C      -42.47140000     -31.89300000     -70.84140000
H      -43.20020000     -31.06930000     -70.62940000
H      -41.62890000     -31.46340000     -71.42570000
C      -47.10960000     -35.90760000     -71.77990000
H      -47.74930000     -36.23760000     -72.65980000
H      -46.82070000     -36.73730000     -71.13690000
C      -45.89890000     -35.09380000     -72.24230000
H      -45.44600000     -34.64580000     -71.37050000
H      -45.14890000     -35.70990000     -72.71890000
C      -43.36910000     -32.85990000     -71.69580000
H      -43.97720000     -33.48170000     -71.01470000
H      -42.79430000     -33.58650000     -72.27790000
C      -44.26200000     -32.14190000     -72.64770000
C      -43.99710000     -30.83860000     -73.04270000
C      -45.39480000     -32.73000000     -73.26930000
H      -43.20420000     -30.17090000     -72.81420000
C      -45.94070000     -31.80520000     -74.16280000
C      -46.19050000     -33.92380000     -73.18400000
C      -47.31790000     -33.87780000     -73.89560000
S      -45.06110000     -30.29830000     -74.28650000
S      -47.52990000     -32.34610000     -74.75660000
H      -48.00360000     -34.70280000     -73.77360000
