40
Properties=species:S:1:pos:R:3 #=T CELL(abcABC):=T 1.889726e+02=T 90.00000=T Traj:=T positionsangstrom=T Step:=T 0=T Bead:=T pbc="F F F"
C      -46.45400000     -36.71650000     -72.67820000
C      -46.51630000     -35.48560000     -73.36810000
C      -45.32740000     -34.86170000     -73.84190000
C      -44.08250000     -35.50420000     -73.67240000
C      -44.04870000     -36.74300000     -73.04680000
C      -45.21530000     -37.39520000     -72.60600000
H      -47.40290000     -37.03620000     -72.33730000
H      -45.34130000     -33.88890000     -74.36110000
H      -43.06840000     -37.17570000     -72.74850000
H      -45.22010000     -38.22540000     -71.89970000
C      -42.84300000     -35.00080000     -74.33530000
H      -42.80290000     -35.46120000     -75.29350000
H      -41.85780000     -35.25070000     -73.86900000
C      -47.82140000     -34.64780000     -73.68070000
H      -47.61270000     -33.71740000     -74.13500000
H      -48.42840000     -35.23040000     -74.42370000
S      -42.79280000     -33.08810000     -74.30040000
S      -48.92230000     -34.44860000     -72.19820000
C      -42.79080000     -32.80260000     -72.47080000
H      -42.14020000     -33.53800000     -71.98200000
H      -42.45080000     -31.80720000     -72.20380000
C      -47.71030000     -33.76140000     -70.93280000
H      -46.93610000     -34.43660000     -70.88070000
H      -48.32230000     -33.81930000     -70.08700000
C      -47.47800000     -32.26660000     -71.22220000
H      -46.98740000     -32.19680000     -72.19710000
H      -48.48260000     -31.68090000     -71.24690000
C      -44.10200000     -33.03680000     -71.70460000
H      -44.47350000     -34.10350000     -71.76610000
H      -44.87880000     -32.56430000     -72.30010000
C      -44.05350000     -32.47310000     -70.30690000
C      -42.93170000     -32.49040000     -69.50350000
C      -45.19130000     -31.94680000     -69.67010000
H      -42.02890000     -32.96650000     -69.75100000
C      -44.92320000     -31.44440000     -68.37290000
C      -46.60420000     -31.74050000     -70.04160000
C      -47.29910000     -31.10630000     -68.98570000
S      -43.21850000     -31.64190000     -67.94510000
S      -46.30800000     -30.73630000     -67.57220000
H      -48.30310000     -30.74760000     -68.94860000
