40
Properties=species:S:1:pos:R:3 #=T CELL(abcABC):=T 1.889726e+02=T 90.00000=T Traj:=T positionsangstrom=T Step:=T 0=T Bead:=T pbc="F F F"
C      -46.46880000     -36.52300000     -72.69000000
C      -46.61990000     -35.45240000     -73.56190000
C      -45.41910000     -34.96480000     -74.12800000
C      -44.11460000     -35.55040000     -73.92600000
C      -44.07270000     -36.59520000     -72.99460000
C      -45.23410000     -37.11150000     -72.37680000
H      -47.33040000     -36.87780000     -72.06990000
H      -45.52900000     -33.96640000     -74.60550000
H      -43.10230000     -37.03420000     -72.75060000
H      -45.12750000     -37.98020000     -71.68260000
C      -42.83020000     -34.94250000     -74.40390000
H      -42.88130000     -35.18890000     -75.48690000
H      -41.95860000     -35.32830000     -73.85320000
C      -47.87760000     -34.71670000     -73.75120000
H      -47.66390000     -33.70500000     -74.09230000
H      -48.54490000     -35.14350000     -74.50970000
S      -42.66610000     -33.07800000     -74.13530000
S      -48.80010000     -34.65380000     -72.08800000
C      -42.62310000     -32.75860000     -72.32070000
H      -41.91820000     -33.39120000     -71.84720000
H      -42.24330000     -31.74980000     -72.19300000
C      -47.60820000     -33.79780000     -70.99000000
H      -46.62730000     -34.25600000     -70.82910000
H      -48.06300000     -33.91000000     -69.99370000
C      -47.36700000     -32.27050000     -71.30700000
H      -46.68080000     -32.24000000     -72.21310000
H      -48.23650000     -31.73580000     -71.55050000
C      -43.98020000     -32.88570000     -71.77200000
H      -44.33170000     -33.86040000     -71.72690000
H      -44.66780000     -32.19060000     -72.31930000
C      -44.05110000     -32.31430000     -70.37020000
C      -42.99380000     -32.30250000     -69.49120000
C      -45.30300000     -31.97720000     -69.67510000
H      -42.03310000     -32.70780000     -69.83360000
C      -45.05360000     -31.67720000     -68.32640000
C      -46.66420000     -31.71080000     -70.08900000
C      -47.36250000     -31.15150000     -69.05510000
S      -43.34060000     -31.69620000     -67.93330000
S      -46.38350000     -30.81300000     -67.55510000
H      -48.43980000     -30.79840000     -69.15670000
