40
Properties=species:S:1:pos:R:3 #=T CELL(abcABC):=T 1.889726e+02=T 90.00000=T Traj:=T positionsangstrom=T Step:=T 0=T Bead:=T pbc="F F F"
C      -46.70310000     -32.21590000     -67.85390000
C      -45.93790000     -33.06060000     -68.79790000
C      -45.09770000     -32.43510000     -69.66030000
C      -44.82850000     -31.06630000     -69.68430000
C      -45.54600000     -30.25230000     -68.78400000
C      -46.48540000     -30.83150000     -67.89220000
H      -47.46880000     -32.64270000     -67.10370000
H      -44.46030000     -32.98560000     -70.27480000
H      -45.30550000     -29.13320000     -68.76160000
H      -46.92150000     -30.18270000     -67.10560000
C      -43.83700000     -30.47550000     -70.74290000
H      -42.98840000     -31.22520000     -70.81660000
H      -43.31530000     -29.61310000     -70.27700000
C      -46.14590000     -34.51360000     -68.73530000
H      -45.29360000     -35.08650000     -69.11950000
H      -46.26630000     -34.84460000     -67.75280000
S      -44.72040000     -30.12840000     -72.28530000
S      -47.74410000     -35.15060000     -69.56970000
C      -46.09160000     -31.26000000     -72.64450000
H      -46.25320000     -31.79960000     -71.77330000
H      -46.94420000     -30.62690000     -72.86600000
C      -48.08030000     -34.07110000     -71.07540000
H      -47.57200000     -33.11240000     -70.97060000
H      -49.19850000     -33.86610000     -71.19460000
C      -47.58500000     -34.78810000     -72.37420000
H      -48.22360000     -35.70310000     -72.57270000
H      -47.87930000     -34.18330000     -73.24840000
C      -45.70220000     -32.19360000     -73.83320000
H      -45.36560000     -31.55720000     -74.69330000
H      -46.59970000     -32.75620000     -74.23710000
C      -44.68430000     -33.16760000     -73.32600000
C      -43.37390000     -32.93070000     -73.58690000
C      -44.95430000     -34.45950000     -72.76320000
H      -42.82000000     -32.11720000     -73.90220000
C      -43.77930000     -35.13620000     -72.60050000
C      -46.12530000     -35.18510000     -72.39920000
C      -45.76360000     -36.48690000     -72.09200000
S      -42.39940000     -34.25410000     -73.09410000
S      -43.98470000     -36.75050000     -72.09600000
H      -46.49720000     -37.28050000     -71.92550000
