40
Properties=species:S:1:pos:R:3 #=T CELL(abcABC):=T 1.889726e+02=T 90.00000=T Traj:=T positionsangstrom=T Step:=T 0=T Bead:=T pbc="F F F"
C      -45.88490000     -32.36640000     -75.23130000
C      -45.89880000     -31.43620000     -74.16570000
C      -46.90580000     -31.58340000     -73.19500000
C      -47.92890000     -32.47910000     -73.37010000
C      -47.96260000     -33.35090000     -74.48120000
C      -46.98590000     -33.17050000     -75.50440000
H      -45.12810000     -32.23840000     -75.94060000
H      -46.87490000     -30.85190000     -72.22240000
H      -48.88480000     -33.91310000     -74.69740000
H      -47.09340000     -33.82850000     -76.31380000
C      -49.02870000     -32.81880000     -72.38170000
H      -49.25640000     -33.89350000     -72.49620000
H      -49.94260000     -32.24300000     -72.58490000
C      -44.83420000     -30.40040000     -74.16650000
H      -44.06090000     -30.72320000     -74.83290000
H      -45.12720000     -29.41540000     -74.52450000
S      -48.55990000     -32.48780000     -70.62340000
S      -44.17220000     -30.06730000     -72.45740000
C      -47.57630000     -34.01800000     -70.14510000
H      -48.31090000     -34.84710000     -69.82030000
H      -47.01970000     -34.32210000     -71.01470000
C      -43.18860000     -31.52760000     -71.94110000
H      -42.54180000     -31.20680000     -71.11630000
H      -42.38000000     -31.75230000     -72.67740000
C      -44.13950000     -32.66480000     -71.48690000
H      -44.99850000     -32.14890000     -71.00180000
H      -44.66390000     -33.07360000     -72.34100000
C      -46.55320000     -33.60860000     -69.07680000
H      -47.11110000     -33.53550000     -68.10810000
H      -46.03530000     -32.68400000     -69.25010000
C      -45.42010000     -34.57090000     -68.85390000
C      -45.49490000     -35.65750000     -68.01850000
C      -44.23840000     -34.55520000     -69.69940000
H      -46.25160000     -36.03320000     -67.35360000
C      -43.43070000     -35.67610000     -69.32770000
C      -43.54010000     -33.75640000     -70.65720000
C      -42.24070000     -34.23860000     -70.88320000
S      -44.10230000     -36.72760000     -68.15300000
S      -41.87880000     -35.68850000     -70.05500000
H      -41.67270000     -33.84040000     -71.70220000
