40
Properties=species:S:1:pos:R:3 #=T CELL(abcABC):=T 1.889726e+02=T 90.00000=T Traj:=T positionsangstrom=T Step:=T 0=T Bead:=T pbc="F F F"
C      -44.54920000     -36.36460000     -68.96810000
C      -45.34390000     -35.19270000     -68.82870000
C      -44.65310000     -33.97670000     -68.55830000
C      -43.25020000     -33.92780000     -68.51510000
C      -42.50690000     -35.10540000     -68.72260000
C      -43.21170000     -36.30850000     -68.96050000
H      -44.94970000     -37.33230000     -69.14210000
H      -45.26210000     -33.03000000     -68.46870000
H      -41.46370000     -35.02420000     -68.66440000
H      -42.65060000     -37.25500000     -69.04820000
C      -42.56580000     -32.64040000     -68.33360000
H      -41.85580000     -32.69250000     -67.45510000
H      -43.31130000     -31.91540000     -68.12770000
C      -46.90520000     -35.21870000     -68.82750000
H      -47.22410000     -36.11420000     -68.24460000
H      -47.17050000     -34.36010000     -68.14780000
S      -41.65260000     -32.09450000     -69.86880000
S      -47.67110000     -35.06850000     -70.47780000
C      -43.05540000     -31.36230000     -70.73520000
H      -43.71450000     -30.88010000     -69.96130000
H      -42.73720000     -30.45910000     -71.29940000
C      -46.68080000     -36.12660000     -71.65470000
H      -47.31840000     -36.76500000     -72.33270000
H      -46.07610000     -36.76530000     -71.10320000
C      -45.74380000     -35.23740000     -72.53190000
H      -45.02320000     -34.80700000     -71.89960000
H      -45.27570000     -35.81930000     -73.28820000
C      -43.77920000     -32.46180000     -71.55530000
H      -44.12590000     -33.17570000     -70.88750000
H      -42.99410000     -32.97520000     -72.21060000
C      -44.91150000     -31.91170000     -72.43490000
C      -45.11350000     -30.59380000     -72.68910000
C      -46.02160000     -32.69150000     -73.00610000
H      -44.34090000     -29.80830000     -72.51370000
C      -46.93110000     -31.86720000     -73.70620000
C      -46.43140000     -34.06980000     -73.25570000
C      -47.51020000     -34.20140000     -74.07910000
S      -46.43490000     -30.18040000     -73.75930000
S      -48.22880000     -32.62260000     -74.60510000
H      -48.10540000     -35.01560000     -74.31490000
