40
Properties=species:S:1:pos:R:3 #=T CELL(abcABC):=T 1.889726e+02=T 90.00000=T Traj:=T positionsangstrom=T Step:=T 0=T Bead:=T pbc="F F F"
C      -46.00920000     -32.40130000     -75.26000000
C      -45.86260000     -31.58680000     -74.15330000
C      -46.86630000     -31.73100000     -73.18580000
C      -47.90610000     -32.65120000     -73.28480000
C      -48.05210000     -33.44230000     -74.43520000
C      -47.05590000     -33.36020000     -75.38860000
H      -45.39300000     -32.24210000     -76.06090000
H      -46.89040000     -31.07060000     -72.20340000
H      -48.80480000     -34.27140000     -74.51690000
H      -47.07650000     -34.01510000     -76.27650000
C      -49.10160000     -32.50460000     -72.28180000
H      -49.81360000     -33.34440000     -72.31980000
H      -49.69640000     -31.63020000     -72.56690000
C      -44.81590000     -30.45690000     -74.18450000
H      -43.93270000     -30.73570000     -74.80470000
H      -45.28030000     -29.49440000     -74.54560000
S      -48.63910000     -32.31530000     -70.46240000
S      -44.05910000     -29.93290000     -72.54670000
C      -47.50430000     -33.81310000     -70.25010000
H      -48.03860000     -34.72000000     -70.07790000
H      -47.06530000     -34.00930000     -71.23700000
C      -43.11800000     -31.49540000     -71.88010000
H      -42.53440000     -31.31590000     -71.06150000
H      -42.64280000     -31.96010000     -72.76470000
C      -44.12790000     -32.57540000     -71.36250000
H      -44.73970000     -32.09000000     -70.54770000
H      -44.64980000     -32.98340000     -72.18760000
C      -46.39820000     -33.50790000     -69.15920000
H      -46.94260000     -33.49140000     -68.18200000
H      -46.08900000     -32.50500000     -69.37290000
C      -45.39840000     -34.65120000     -69.08400000
C      -45.69620000     -35.70070000     -68.29150000
C      -44.11420000     -34.68180000     -69.73230000
H      -46.48720000     -35.86150000     -67.59030000
C      -43.35660000     -35.77630000     -69.27930000
C      -43.48150000     -33.82040000     -70.67340000
C      -42.22030000     -34.26970000     -70.93730000
S      -44.26980000     -36.78240000     -68.16250000
S      -41.80000000     -35.76910000     -70.03150000
H      -41.51940000     -33.75340000     -71.57630000
