40
Properties=species:S:1:pos:R:3 #=T CELL(abcABC):=T 1.889726e+02=T 90.00000=T Traj:=T positionsangstrom=T Step:=T 0=T Bead:=T pbc="F F F"
C      -45.78750000     -32.51920000     -67.59150000
C      -45.58800000     -33.40930000     -68.66560000
C      -44.74730000     -32.97120000     -69.69840000
C      -44.30900000     -31.68820000     -69.77670000
C      -44.52800000     -30.76920000     -68.67860000
C      -45.24010000     -31.20240000     -67.57640000
H      -46.24330000     -32.72080000     -66.62950000
H      -44.68860000     -33.56560000     -70.63100000
H      -44.00630000     -29.89880000     -68.83210000
H      -45.48910000     -30.51610000     -66.74960000
C      -43.62950000     -31.16000000     -70.98010000
H      -43.26850000     -32.01290000     -71.58250000
H      -42.76810000     -30.68410000     -70.49330000
C      -46.14250000     -34.84870000     -68.76180000
H      -45.60820000     -35.27170000     -69.55890000
H      -46.01730000     -35.31580000     -67.80770000
S      -44.64650000     -29.99300000     -72.07860000
S      -47.98650000     -34.81780000     -69.19840000
C      -46.27390000     -30.94840000     -72.24270000
H      -46.37550000     -31.47510000     -71.28460000
H      -46.96790000     -30.13630000     -72.27700000
C      -48.09490000     -33.96630000     -70.84520000
H      -47.51160000     -33.11290000     -70.86690000
H      -49.05910000     -33.61410000     -70.94850000
C      -47.83210000     -34.80040000     -72.12600000
H      -48.35500000     -35.78390000     -71.98480000
H      -48.16030000     -34.22910000     -73.01870000
C      -46.25100000     -31.93770000     -73.42290000
H      -46.12200000     -31.42700000     -74.32440000
H      -47.16950000     -32.56020000     -73.51850000
C      -45.12360000     -32.92300000     -73.43870000
C      -43.82930000     -32.65190000     -73.85910000
C      -45.28100000     -34.30500000     -72.96030000
H      -43.51970000     -31.69250000     -74.29000000
C      -44.11510000     -34.98000000     -73.04300000
C      -46.34170000     -35.14630000     -72.44150000
C      -45.92000000     -36.37690000     -72.10920000
S      -42.69100000     -33.99060000     -73.57590000
S      -44.20330000     -36.62830000     -72.49130000
H      -46.54250000     -37.14410000     -71.76710000
