40
Properties=species:S:1:pos:R:3 #=T CELL(abcABC):=T 1.889726e+02=T 90.00000=T Traj:=T positionsangstrom=T Step:=T 0=T Bead:=T pbc="F F F"
C      -46.02310000     -32.65360000     -67.63340000
C      -45.73610000     -33.34960000     -68.75830000
C      -44.95300000     -32.70360000     -69.72790000
C      -44.51330000     -31.35330000     -69.56830000
C      -44.88440000     -30.64850000     -68.44540000
C      -45.73000000     -31.31010000     -67.53570000
H      -46.61130000     -33.17090000     -66.88990000
H      -44.82810000     -33.21620000     -70.61830000
H      -44.69680000     -29.56460000     -68.19070000
H      -45.84490000     -30.68160000     -66.65930000
C      -43.68930000     -30.76940000     -70.69530000
H      -43.05610000     -31.52150000     -71.14840000
H      -43.04560000     -29.96610000     -70.33710000
C      -46.05400000     -34.84440000     -68.78080000
H      -45.36010000     -35.36050000     -69.41460000
H      -46.13330000     -35.39010000     -67.87370000
S      -44.52780000     -29.85620000     -72.16020000
S      -47.83420000     -35.14190000     -69.41030000
C      -46.05240000     -30.82370000     -72.43510000
H      -46.33240000     -31.27170000     -71.54970000
H      -46.82380000     -30.15140000     -72.80430000
C      -47.96280000     -33.96380000     -70.75610000
H      -47.44120000     -33.02600000     -70.60040000
H      -49.00530000     -33.66490000     -70.78970000
C      -47.70510000     -34.55430000     -72.12000000
H      -48.32560000     -35.43450000     -72.28640000
H      -48.09230000     -33.83720000     -72.87830000
C      -46.08720000     -31.90860000     -73.66220000
H      -46.15240000     -31.37310000     -74.63030000
H      -47.04810000     -32.32380000     -73.57780000
C      -45.07630000     -33.06080000     -73.56830000
C      -43.81350000     -32.90540000     -74.12500000
C      -45.23140000     -34.34060000     -72.91090000
H      -43.37740000     -32.00940000     -74.50020000
C      -44.03630000     -35.06250000     -72.94130000
C      -46.30910000     -35.05520000     -72.29000000
C      -45.89190000     -36.29160000     -71.85300000
S      -42.71660000     -34.28750000     -73.78360000
S      -44.15780000     -36.58850000     -72.16250000
H      -46.44520000     -37.03160000     -71.22470000
