40
Properties=species:S:1:pos:R:3 #=T CELL(abcABC):=T 1.889726e+02=T 90.00000=T Traj:=T positionsangstrom=T Step:=T 0=T Bead:=T pbc="F F F"
C      -46.77080000     -32.30980000     -67.91510000
C      -45.96820000     -33.14310000     -68.66460000
C      -45.07710000     -32.53760000     -69.60730000
C      -44.94270000     -31.18330000     -69.79130000
C      -45.58310000     -30.34160000     -68.88660000
C      -46.49940000     -30.88210000     -67.99900000
H      -47.63710000     -32.71120000     -67.34100000
H      -44.45130000     -33.16670000     -70.18440000
H      -45.54820000     -29.25190000     -68.94580000
H      -46.98020000     -30.20330000     -67.31050000
C      -43.84700000     -30.65950000     -70.69180000
H      -43.19270000     -31.36080000     -71.08660000
H      -43.42360000     -29.73700000     -70.33920000
C      -46.15300000     -34.62670000     -68.70650000
H      -45.46040000     -35.05260000     -69.48820000
H      -46.14060000     -35.01020000     -67.65060000
S      -44.60920000     -29.90820000     -72.25000000
S      -47.83360000     -35.12350000     -69.34980000
C      -46.04560000     -31.08460000     -72.58990000
H      -46.40210000     -31.52800000     -71.69850000
H      -46.89990000     -30.45820000     -73.03400000
C      -47.86950000     -34.00600000     -70.89280000
H      -47.24990000     -33.16290000     -70.65490000
H      -48.96040000     -33.66740000     -70.99890000
C      -47.55630000     -34.64720000     -72.23280000
H      -48.21160000     -35.46220000     -72.31720000
H      -47.77130000     -33.89050000     -72.96630000
C      -45.64450000     -32.07400000     -73.70830000
H      -45.22910000     -31.56130000     -74.63920000
H      -46.53160000     -32.52140000     -74.03790000
C      -44.64760000     -33.09850000     -73.38980000
C      -43.34990000     -32.93940000     -73.69030000
C      -44.96650000     -34.46220000     -72.88850000
H      -42.94140000     -31.97590000     -74.02400000
C      -43.80610000     -35.25120000     -72.83120000
C      -46.13450000     -35.12420000     -72.39160000
C      -45.79140000     -36.45320000     -72.15670000
S      -42.35690000     -34.33200000     -73.13510000
S      -44.07230000     -36.83450000     -72.24450000
H      -46.40680000     -37.20420000     -71.72760000
