40
Properties=species:S:1:pos:R:3 #=T CELL(abcABC):=T 1.889726e+02=T 90.00000=T Traj:=T positionsangstrom=T Step:=T 0=T Bead:=T pbc="F F F"
C      -44.62310000     -36.85630000     -74.02580000
C      -45.26040000     -35.62640000     -74.07480000
C      -44.44910000     -34.50390000     -74.04290000
C      -43.04690000     -34.56490000     -74.01660000
C      -42.47810000     -35.83570000     -73.96110000
C      -43.27960000     -36.98600000     -73.91000000
H      -45.21330000     -37.79680000     -74.09660000
H      -44.84650000     -33.47840000     -74.19310000
H      -41.36270000     -35.95410000     -74.07800000
H      -42.80000000     -37.97380000     -73.93970000
C      -42.10080000     -33.31700000     -74.05070000
H      -41.75860000     -33.20680000     -75.08930000
H      -41.26560000     -33.24280000     -73.36790000
C      -46.80620000     -35.52100000     -74.23520000
H      -47.06510000     -34.63720000     -74.73120000
H      -47.09410000     -36.39340000     -74.85050000
S      -42.98540000     -31.70780000     -73.68780000
S      -47.76010000     -35.78840000     -72.63850000
C      -43.22900000     -31.50980000     -71.88710000
H      -42.36340000     -31.80280000     -71.32820000
H      -43.50800000     -30.55580000     -71.80200000
C      -46.93120000     -34.72910000     -71.36720000
H      -45.89470000     -34.53400000     -71.74140000
H      -46.81870000     -35.41710000     -70.54070000
C      -47.64910000     -33.41890000     -71.07310000
H      -47.57610000     -32.74220000     -71.91130000
H      -48.72540000     -33.65860000     -70.99680000
C      -44.49610000     -32.19500000     -71.37790000
H      -44.29690000     -33.25560000     -71.57100000
H      -45.27610000     -31.97350000     -72.00900000
C      -44.84540000     -31.86590000     -69.93800000
C      -43.98310000     -31.30680000     -69.05190000
C      -46.09700000     -32.19120000     -69.34930000
H      -42.90460000     -31.12300000     -69.25490000
C      -46.18040000     -31.74530000     -67.97540000
C      -47.35160000     -32.77600000     -69.77560000
C      -48.28480000     -32.81140000     -68.74150000
S      -44.68500000     -31.01550000     -67.45010000
S      -47.69530000     -32.11880000     -67.21160000
H      -49.27170000     -33.15350000     -68.86960000
