40
Properties=species:S:1:pos:R:3 #=T CELL(abcABC):=T 1.889726e+02=T 90.00000=T Traj:=T positionsangstrom=T Step:=T 0=T Bead:=T pbc="F F F"
C      -45.71750000     -32.94440000     -67.48000000
C      -45.37630000     -33.60520000     -68.65250000
C      -44.74020000     -32.93930000     -69.67340000
C      -44.47810000     -31.58640000     -69.66200000
C      -44.85680000     -30.86500000     -68.47750000
C      -45.42760000     -31.52290000     -67.38310000
H      -46.09270000     -33.43850000     -66.62830000
H      -44.51060000     -33.55830000     -70.54270000
H      -44.62040000     -29.81750000     -68.51300000
H      -45.65990000     -30.95910000     -66.44630000
C      -43.74650000     -31.01760000     -70.88710000
H      -43.56450000     -31.76740000     -71.58940000
H      -42.73520000     -30.74770000     -70.54150000
C      -45.82610000     -35.02480000     -68.74420000
H      -45.02130000     -35.53070000     -69.44700000
H      -45.65230000     -35.67510000     -67.90010000
S      -44.70960000     -29.69590000     -71.71840000
S      -47.55740000     -35.26060000     -69.24900000
C      -46.19850000     -30.80430000     -72.24330000
H      -46.26120000     -31.38520000     -71.34060000
H      -47.19230000     -30.30340000     -72.25140000
C      -47.95310000     -33.98090000     -70.55510000
H      -47.36260000     -33.13700000     -70.32650000
H      -49.05060000     -33.79280000     -70.57680000
C      -47.83960000     -34.39640000     -72.10560000
H      -48.69790000     -35.02160000     -72.35550000
H      -48.05520000     -33.46050000     -72.71690000
C      -46.01080000     -31.58100000     -73.50410000
H      -45.66300000     -30.89770000     -74.38930000
H      -47.02760000     -31.88030000     -73.83920000
C      -45.13210000     -32.82680000     -73.52360000
C      -43.86070000     -32.64550000     -73.96850000
C      -45.33280000     -34.18240000     -73.02110000
H      -43.52030000     -31.61890000     -74.32980000
C      -44.18570000     -34.96840000     -73.22620000
C      -46.46030000     -34.94780000     -72.46480000
C      -45.97130000     -36.20130000     -72.04460000
S      -42.85910000     -34.09570000     -74.00190000
S      -44.38940000     -36.62530000     -72.63440000
H      -46.61870000     -37.00670000     -71.74170000
