40
Properties=species:S:1:pos:R:3 #=T CELL(abcABC):=T 1.889726e+02=T 90.00000=T Traj:=T positionsangstrom=T Step:=T 0=T Bead:=T pbc="F F F"
C      -45.03150000     -36.80920000     -74.06930000
C      -45.52510000     -35.47160000     -73.97840000
C      -44.54670000     -34.45760000     -74.18170000
C      -43.16040000     -34.68130000     -74.09310000
C      -42.76010000     -36.00220000     -73.88120000
C      -43.67160000     -37.04820000     -73.95850000
H      -45.65000000     -37.68090000     -73.86990000
H      -44.85390000     -33.40170000     -74.17320000
H      -41.72460000     -36.20870000     -73.55240000
H      -43.31620000     -38.07820000     -73.95200000
C      -42.11870000     -33.62400000     -74.21510000
H      -41.90480000     -33.49990000     -75.26060000
H      -41.23340000     -33.89820000     -73.61260000
C      -46.97120000     -35.31290000     -73.70240000
H      -47.23700000     -34.32010000     -73.70750000
H      -47.55500000     -35.84670000     -74.52640000
S      -42.71130000     -31.91090000     -73.75270000
S      -47.47590000     -36.10600000     -72.16390000
C      -43.11150000     -31.76040000     -71.95320000
H      -42.38670000     -32.39550000     -71.31190000
H      -43.08600000     -30.68020000     -71.89260000
C      -47.03110000     -34.89760000     -70.87500000
H      -45.95250000     -34.75180000     -70.67150000
H      -47.44390000     -35.41980000     -69.99670000
C      -47.64390000     -33.48390000     -71.03240000
H      -47.30760000     -33.03910000     -71.97730000
H      -48.73480000     -33.47150000     -71.26830000
C      -44.52140000     -32.15480000     -71.50760000
H      -44.63160000     -33.31100000     -71.60410000
H      -45.25500000     -31.78560000     -72.18660000
C      -44.80210000     -31.85230000     -70.09540000
C      -43.93810000     -31.30900000     -69.20580000
C      -46.09530000     -32.09360000     -69.46130000
H      -42.95100000     -30.90870000     -69.49080000
C      -46.10440000     -31.57990000     -68.16770000
C      -47.37910000     -32.54430000     -69.87960000
C      -48.30230000     -32.27820000     -68.97550000
S      -44.55180000     -31.08010000     -67.61440000
S      -47.70100000     -31.66810000     -67.38560000
H      -49.30580000     -32.68250000     -69.07060000
