40
Properties=species:S:1:pos:R:3 #=T CELL(abcABC):=T 1.889726e+02=T 90.00000=T Traj:=T positionsangstrom=T Step:=T 0=T Bead:=T pbc="F F F"
C      -41.91780000     -34.58390000     -71.74490000
C      -42.83510000     -35.21730000     -72.68090000
C      -43.69560000     -36.18670000     -72.21010000
C      -43.73110000     -36.54600000     -70.82370000
C      -42.84480000     -35.91500000     -69.93870000
C      -41.96810000     -34.93680000     -70.37180000
H      -41.10890000     -33.85870000     -72.17170000
H      -44.34740000     -36.75880000     -72.94960000
H      -42.86000000     -36.27350000     -68.93150000
H      -41.37190000     -34.41780000     -69.64270000
C      -44.71160000     -37.59900000     -70.37420000
H      -44.74170000     -37.71000000     -69.33700000
H      -44.63850000     -38.54200000     -70.89850000
C      -42.80360000     -34.81100000     -74.15970000
H      -41.83320000     -35.09110000     -74.47150000
H      -43.48440000     -35.40390000     -74.73150000
S      -46.46510000     -37.00710000     -70.88120000
S      -43.05070000     -33.02800000     -74.35320000
C      -46.87060000     -35.42660000     -70.00420000
H      -47.97480000     -35.46850000     -69.85270000
H      -46.46440000     -35.40800000     -68.94180000
C      -44.49220000     -32.61290000     -73.32710000
H      -45.02180000     -33.52830000     -73.07820000
H      -45.24560000     -32.02940000     -73.93830000
C      -44.14230000     -31.78260000     -72.10890000
H      -43.62330000     -32.38530000     -71.34710000
H      -43.49570000     -30.90770000     -72.39010000
C      -46.47720000     -34.20520000     -70.79740000
H      -46.62040000     -34.15950000     -71.80990000
H      -45.34950000     -34.18180000     -70.74460000
C      -47.07000000     -32.86610000     -70.39790000
C      -48.29790000     -32.81990000     -69.78220000
C      -46.56630000     -31.57370000     -70.78110000
H      -48.96550000     -33.65360000     -69.44300000
C      -47.42010000     -30.48770000     -70.43070000
C      -45.35790000     -31.12630000     -71.45470000
C      -45.34240000     -29.75090000     -71.36780000
S      -48.80430000     -31.13610000     -69.55380000
S      -46.70910000     -28.95070000     -70.54640000
H      -44.52780000     -29.11550000     -71.74260000
