40
Properties=species:S:1:pos:R:3 #=T CELL(abcABC):=T 1.889726e+02=T 90.00000=T Traj:=T positionsangstrom=T Step:=T 0=T Bead:=T pbc="F F F"
C      -45.34120000     -37.12730000     -73.74700000
C      -45.71770000     -35.78300000     -73.89000000
C      -44.72660000     -34.80640000     -74.01940000
C      -43.38910000     -35.12350000     -73.95600000
C      -43.04300000     -36.46350000     -73.94880000
C      -43.99190000     -37.46960000     -73.84900000
H      -46.05330000     -37.96790000     -73.75210000
H      -44.97620000     -33.77500000     -74.08230000
H      -41.99410000     -36.76690000     -73.91710000
H      -43.63830000     -38.50600000     -73.80770000
C      -42.25750000     -34.07550000     -73.96310000
H      -41.64050000     -34.12430000     -74.84460000
H      -41.56930000     -34.22190000     -73.10890000
C      -47.22430000     -35.45500000     -73.76670000
H      -47.26290000     -34.33860000     -73.87750000
H      -47.86660000     -35.89300000     -74.49980000
S      -42.82040000     -32.30480000     -73.72860000
S      -47.95690000     -35.91110000     -72.09930000
C      -42.82360000     -32.07060000     -71.85780000
H      -41.92410000     -32.55680000     -71.50800000
H      -42.87720000     -30.95690000     -71.77500000
C      -47.03950000     -34.79860000     -71.05090000
H      -45.95040000     -34.97100000     -71.22500000
H      -47.15590000     -35.28610000     -70.09820000
C      -47.46070000     -33.31010000     -71.10000000
H      -47.13260000     -32.74390000     -72.06880000
H      -48.49260000     -33.30010000     -71.35630000
C      -44.07250000     -32.61490000     -71.24090000
H      -44.05350000     -33.63340000     -70.98610000
H      -44.94520000     -32.55550000     -71.93800000
C      -44.46200000     -31.96050000     -69.95950000
C      -43.60570000     -31.29190000     -69.11400000
C      -45.83130000     -31.92360000     -69.52100000
H      -42.64390000     -30.87780000     -69.38840000
C      -45.94340000     -31.06730000     -68.34680000
C      -47.12960000     -32.44010000     -69.91970000
C      -48.11940000     -31.95070000     -69.05900000
S      -44.36690000     -30.52240000     -67.76110000
S      -47.53380000     -31.03700000     -67.69600000
H      -49.16010000     -32.13840000     -69.17620000
