40
Properties=species:S:1:pos:R:3 #=T CELL(abcABC):=T 1.889726e+02=T 90.00000=T Traj:=T positionsangstrom=T Step:=T 0=T Bead:=T pbc="F F F"
C      -44.42620000     -35.98800000     -73.46970000
C      -45.23860000     -34.97880000     -74.07390000
C      -44.61760000     -33.69940000     -74.22270000
C      -43.22760000     -33.54150000     -74.03350000
C      -42.50980000     -34.56900000     -73.39670000
C      -43.10830000     -35.76220000     -73.09160000
H      -44.88340000     -36.96560000     -73.28980000
H      -45.20150000     -32.80280000     -74.36470000
H      -41.44760000     -34.46600000     -73.10210000
H      -42.55390000     -36.52940000     -72.52960000
C      -42.54010000     -32.22730000     -74.26090000
H      -42.28900000     -32.06520000     -75.26910000
H      -41.67720000     -32.19950000     -73.67180000
C      -46.72510000     -35.17080000     -74.32340000
H      -47.31120000     -34.25610000     -74.37990000
H      -46.93670000     -35.60650000     -75.31270000
S      -43.54190000     -30.77040000     -73.69370000
S      -47.49400000     -36.27910000     -73.05470000
C      -43.42800000     -31.04920000     -71.87420000
H      -42.59780000     -31.65990000     -71.69580000
H      -43.32250000     -30.07160000     -71.38110000
C      -47.07230000     -35.29300000     -71.46780000
H      -45.98200000     -35.30340000     -71.38020000
H      -47.54710000     -35.92360000     -70.68010000
C      -47.45800000     -33.81450000     -71.25920000
H      -46.89600000     -33.26010000     -72.07710000
H      -48.53250000     -33.71560000     -71.44130000
C      -44.75460000     -31.57280000     -71.39290000
H      -45.11750000     -32.41620000     -71.98870000
H      -45.42520000     -30.77720000     -71.50030000
C      -44.86170000     -31.91750000     -69.93600000
C      -44.06470000     -31.36510000     -68.93280000
C      -46.00490000     -32.68180000     -69.37720000
H      -43.23680000     -30.70770000     -69.10690000
C      -46.02110000     -32.62090000     -67.98510000
C      -47.12660000     -33.46650000     -69.85610000
C      -47.96290000     -33.94340000     -68.91180000
S      -44.68500000     -31.77700000     -67.33540000
S      -47.32840000     -33.57990000     -67.34300000
H      -48.85110000     -34.51790000     -69.02110000
