40
Properties=species:S:1:pos:R:3 #=T CELL(abcABC):=T 1.889726e+02=T 90.00000=T Traj:=T positionsangstrom=T Step:=T 0=T Bead:=T pbc="F F F"
C      -44.32650000     -35.43500000     -72.92570000
C      -44.89860000     -34.72410000     -73.99430000
C      -44.30870000     -33.56280000     -74.44370000
C      -43.09340000     -33.09330000     -73.92940000
C      -42.54980000     -33.82000000     -72.86410000
C      -43.15620000     -34.93110000     -72.34800000
H      -44.85160000     -36.25530000     -72.58420000
H      -44.76170000     -32.98360000     -75.23180000
H      -41.61440000     -33.43190000     -72.50180000
H      -42.75470000     -35.33710000     -71.40110000
C      -42.47620000     -31.76710000     -74.28250000
H      -42.64430000     -31.62360000     -75.34100000
H      -41.46650000     -31.63080000     -73.98880000
C      -46.29150000     -34.99240000     -74.49480000
H      -46.81200000     -34.05250000     -74.42800000
H      -46.24040000     -35.37680000     -75.52500000
S      -43.70630000     -30.49350000     -73.60720000
S      -47.30770000     -36.24180000     -73.41490000
C      -43.78560000     -30.90190000     -71.82650000
H      -42.85200000     -31.33830000     -71.52010000
H      -43.85540000     -29.99290000     -71.26150000
C      -47.22770000     -35.76360000     -71.68560000
H      -46.43470000     -36.27600000     -71.18070000
H      -47.98850000     -36.22860000     -71.07250000
C      -47.21450000     -34.24240000     -71.47460000
H      -46.40050000     -33.80070000     -72.11150000
H      -48.17080000     -33.91690000     -71.93240000
C      -44.93740000     -31.78420000     -71.44740000
H      -44.62170000     -32.80080000     -71.78280000
H      -45.94530000     -31.66320000     -71.88850000
C      -45.22490000     -31.97280000     -69.94840000
C      -44.53270000     -31.29080000     -68.94320000
C      -46.13580000     -32.94560000     -69.45610000
H      -43.65910000     -30.69990000     -68.99590000
C      -46.00810000     -33.08960000     -68.09300000
C      -47.03490000     -33.98010000     -69.98050000
C      -47.83470000     -34.46990000     -68.98620000
S      -44.86460000     -31.94460000     -67.32650000
S      -47.21870000     -34.07840000     -67.36520000
H      -48.52730000     -35.30360000     -69.15010000
