40
Properties=species:S:1:pos:R:3 #=T CELL(abcABC):=T 1.889726e+02=T 90.00000=T Traj:=T positionsangstrom=T Step:=T 0=T Bead:=T pbc="F F F"
C      -44.43220000     -36.13480000     -73.68300000
C      -45.26690000     -35.07790000     -74.11120000
C      -44.54740000     -33.82850000     -74.19960000
C      -43.18070000     -33.68140000     -73.98470000
C      -42.41260000     -34.75950000     -73.53330000
C      -43.10600000     -35.96150000     -73.33050000
H      -44.85210000     -37.14360000     -73.58800000
H      -45.02960000     -33.00010000     -74.72950000
H      -41.35650000     -34.69980000     -73.28000000
H      -42.57180000     -36.75470000     -72.88590000
C      -42.49510000     -32.36910000     -74.29800000
H      -42.40880000     -32.17320000     -75.39610000
H      -41.43940000     -32.42620000     -73.91280000
C      -46.73740000     -35.17920000     -74.43190000
H      -47.21830000     -34.24330000     -74.75390000
H      -46.93880000     -35.90430000     -75.28220000
S      -43.25760000     -30.78460000     -73.64590000
S      -47.69370000     -35.89170000     -73.00410000
C      -43.49060000     -31.12160000     -71.85040000
H      -42.74470000     -31.87010000     -71.55260000
H      -43.32020000     -30.20200000     -71.24750000
C      -46.85790000     -35.26030000     -71.56130000
H      -45.75890000     -35.24520000     -71.59380000
H      -47.13460000     -36.01040000     -70.80640000
C      -47.37610000     -33.86420000     -71.17950000
H      -47.02410000     -33.03530000     -71.81470000
H      -48.46990000     -33.75310000     -71.26840000
C      -44.86630000     -31.69790000     -71.42730000
H      -44.85200000     -32.69220000     -71.96630000
H      -45.72900000     -31.05970000     -71.85810000
C      -45.11040000     -31.88020000     -69.96230000
C      -44.30510000     -31.22040000     -69.03870000
C      -46.13240000     -32.61690000     -69.31090000
H      -43.37890000     -30.68910000     -69.17890000
C      -46.04060000     -32.58800000     -67.91010000
C      -47.12900000     -33.53600000     -69.73590000
C      -47.95490000     -33.96660000     -68.75630000
S      -44.66630000     -31.71260000     -67.37740000
S      -47.34750000     -33.53870000     -67.17780000
H      -48.75740000     -34.67770000     -68.88950000
