40
Properties=species:S:1:pos:R:3 #=T CELL(abcABC):=T 1.889726e+02=T 90.00000=T Traj:=T positionsangstrom=T Step:=T 0=T Bead:=T pbc="F F F"
C      -44.60580000     -36.31900000     -73.86100000
C      -45.21550000     -35.12110000     -74.21140000
C      -44.45020000     -33.97310000     -74.16670000
C      -43.06820000     -33.94850000     -73.89800000
C      -42.46000000     -35.17880000     -73.55280000
C      -43.17960000     -36.37260000     -73.67530000
H      -45.23120000     -37.21540000     -73.76530000
H      -44.93180000     -33.06790000     -74.58660000
H      -41.40390000     -35.14730000     -73.24240000
H      -42.76770000     -37.39110000     -73.41190000
C      -42.24200000     -32.73980000     -73.99670000
H      -41.79550000     -32.65420000     -74.99770000
H      -41.48010000     -32.66000000     -73.21320000
C      -46.66370000     -34.90810000     -74.54140000
H      -46.88450000     -33.86910000     -74.70200000
H      -47.05740000     -35.33940000     -75.47040000
S      -43.26780000     -31.18400000     -73.69210000
S      -47.71400000     -35.64480000     -73.17400000
C      -43.43350000     -31.17450000     -71.86960000
H      -42.51070000     -31.68430000     -71.51020000
H      -43.56410000     -30.12490000     -71.45850000
C      -46.97070000     -35.06710000     -71.61070000
H      -45.89760000     -35.00660000     -71.74490000
H      -47.13260000     -35.90490000     -70.88490000
C      -47.59480000     -33.73700000     -71.08170000
H      -47.21720000     -32.87400000     -71.66510000
H      -48.69350000     -33.90060000     -71.10510000
C      -44.68810000     -32.07400000     -71.38000000
H      -44.23610000     -33.12550000     -71.51040000
H      -45.59910000     -31.94600000     -72.05500000
C      -45.10030000     -31.86510000     -69.94970000
C      -44.29830000     -31.14060000     -69.08570000
C      -46.07100000     -32.63970000     -69.24080000
H      -43.52370000     -30.41960000     -69.43780000
C      -46.01160000     -32.46490000     -67.88400000
C      -47.23100000     -33.47960000     -69.61410000
C      -47.94520000     -33.87950000     -68.53940000
S      -44.73120000     -31.35660000     -67.40690000
S      -47.33890000     -33.20230000     -67.01040000
H      -48.83050000     -34.46900000     -68.49350000
