40
Properties=species:S:1:pos:R:3 #=T CELL(abcABC):=T 1.889726e+02=T 90.00000=T Traj:=T positionsangstrom=T Step:=T 0=T Bead:=T pbc="F F F"
C      -44.00040000     -35.71490000     -73.33990000
C      -44.88410000     -34.79310000     -73.89590000
C      -44.48890000     -33.43070000     -74.14400000
C      -43.24200000     -32.96110000     -73.75260000
C      -42.37310000     -33.87760000     -73.11890000
C      -42.67210000     -35.29210000     -73.04130000
H      -44.27040000     -36.71580000     -73.36000000
H      -45.24540000     -32.84040000     -74.64590000
H      -41.36740000     -33.40990000     -73.12060000
H      -41.90290000     -36.00490000     -72.59670000
C      -42.76110000     -31.56400000     -74.02250000
H      -42.85990000     -31.15430000     -75.06540000
H      -41.65320000     -31.53560000     -73.86410000
C      -46.20620000     -35.32250000     -74.58060000
H      -46.75770000     -34.49760000     -75.09340000
H      -45.98960000     -36.01960000     -75.41870000
S      -43.72310000     -30.02320000     -73.31230000
S      -47.19010000     -36.43190000     -73.42550000
C      -44.09860000     -30.39190000     -71.49620000
H      -43.13730000     -30.80450000     -71.12760000
H      -44.35320000     -29.52660000     -70.92070000
C      -47.88750000     -35.24670000     -72.06660000
H      -48.28530000     -35.98650000     -71.30110000
H      -48.85130000     -34.76850000     -72.39550000
C      -46.91720000     -34.20330000     -71.57950000
H      -45.90190000     -34.37190000     -71.88550000
H      -47.24140000     -33.21380000     -71.97760000
C      -45.22230000     -31.45990000     -71.33960000
H      -44.95000000     -32.34590000     -71.96730000
H      -46.21160000     -31.22410000     -71.71760000
C      -45.45040000     -31.85560000     -69.88420000
C      -44.80820000     -31.26350000     -68.78500000
C      -46.03080000     -33.06960000     -69.44190000
H      -44.28750000     -30.35530000     -68.91530000
C      -45.98990000     -33.15120000     -68.02980000
C      -46.85360000     -34.10180000     -70.06680000
C      -47.33920000     -34.95260000     -69.13510000
S      -45.20120000     -31.84380000     -67.21710000
S      -46.85560000     -34.57160000     -67.45380000
H      -48.13950000     -35.73060000     -69.12490000
