40
Properties=species:S:1:pos:R:3 #=T CELL(abcABC):=T 1.889726e+02=T 90.00000=T Traj:=T positionsangstrom=T Step:=T 0=T Bead:=T pbc="F F F"
C      -46.45820000     -32.08830000     -67.71340000
C      -45.85190000     -32.99710000     -68.57300000
C      -44.91360000     -32.58330000     -69.53870000
C      -44.69880000     -31.22070000     -69.84130000
C      -45.26760000     -30.28580000     -68.95400000
C      -46.14180000     -30.73200000     -67.90760000
H      -47.16150000     -32.47070000     -66.92920000
H      -44.51370000     -33.33990000     -70.31100000
H      -45.08780000     -29.17920000     -69.10930000
H      -46.58550000     -29.98290000     -67.33300000
C      -43.83510000     -30.81880000     -71.05770000
H      -43.39420000     -31.74570000     -71.34080000
H      -43.05170000     -30.08470000     -70.98430000
C      -46.11250000     -34.47290000     -68.47600000
H      -45.32410000     -35.01830000     -68.96590000
H      -46.06910000     -34.73150000     -67.38090000
S      -44.95030000     -30.29370000     -72.52370000
S      -47.77140000     -35.04080000     -69.11150000
C      -46.34060000     -31.44630000     -72.70560000
H      -46.52770000     -32.04370000     -71.82120000
H      -47.22630000     -30.81490000     -72.96940000
C      -47.88700000     -34.20850000     -70.78750000
H      -47.60280000     -33.20930000     -70.64290000
H      -48.94210000     -34.20420000     -70.90600000
C      -47.48750000     -35.11310000     -72.06340000
H      -48.04240000     -36.02810000     -71.88120000
H      -47.97860000     -34.54870000     -72.78740000
C      -46.29330000     -32.45160000     -73.89480000
H      -46.19620000     -31.94400000     -74.79740000
H      -47.25190000     -32.92570000     -73.91100000
C      -45.05210000     -33.25070000     -73.73880000
C      -43.76510000     -32.88720000     -74.14090000
C      -45.05570000     -34.42460000     -72.84490000
H      -43.51140000     -32.03720000     -74.73840000
C      -43.76890000     -34.96840000     -72.80840000
C      -46.00430000     -35.26800000     -72.18800000
C      -45.41100000     -36.39140000     -71.72120000
S      -42.52880000     -33.95340000     -73.48420000
S      -43.70620000     -36.50730000     -71.90790000
H      -45.94830000     -37.08410000     -71.05120000
