40
Properties=species:S:1:pos:R:3 #=T CELL(abcABC):=T 1.889726e+02=T 90.00000=T Traj:=T positionsangstrom=T Step:=T 0=T Bead:=T pbc="F F F"
C      -46.40460000     -31.68120000     -68.02720000
C      -45.71140000     -32.63200000     -68.78880000
C      -44.93240000     -32.24600000     -69.92880000
C      -44.89300000     -30.92080000     -70.28900000
C      -45.53260000     -29.95640000     -69.44280000
C      -46.21870000     -30.33910000     -68.31700000
H      -46.93030000     -31.99720000     -67.22860000
H      -44.45510000     -32.99780000     -70.52250000
H      -45.42430000     -28.90790000     -69.59580000
H      -46.50120000     -29.52050000     -67.61360000
C      -44.08470000     -30.49910000     -71.46650000
H      -43.36680000     -31.38820000     -71.72230000
H      -43.51350000     -29.57760000     -71.18520000
C      -45.87040000     -34.10590000     -68.47000000
H      -45.09910000     -34.68860000     -69.00400000
H      -45.79500000     -34.47690000     -67.44820000
S      -45.11050000     -29.95980000     -73.00800000
S      -47.55540000     -34.58690000     -69.03010000
C      -46.39950000     -31.30900000     -73.11820000
H      -46.91020000     -31.48760000     -72.14980000
H      -47.14970000     -30.96060000     -73.77550000
C      -47.65380000     -34.04810000     -70.77500000
H      -46.84600000     -33.27630000     -70.89020000
H      -48.66100000     -33.55800000     -70.94910000
C      -47.51630000     -35.19270000     -71.94050000
H      -48.19480000     -36.09660000     -71.71190000
H      -48.00690000     -34.75530000     -72.82280000
C      -46.06530000     -32.71300000     -73.79200000
H      -46.05510000     -32.48880000     -74.90220000
H      -46.97620000     -33.35860000     -73.59370000
C      -44.88130000     -33.57260000     -73.32640000
C      -43.60640000     -33.27110000     -73.65620000
C      -44.94190000     -34.78820000     -72.58660000
H      -43.27330000     -32.57190000     -74.39060000
C      -43.73250000     -35.49620000     -72.37570000
C      -46.06820000     -35.61400000     -72.01890000
C      -45.67070000     -36.84900000     -71.50280000
S      -42.46060000     -34.42140000     -73.06550000
S      -43.91900000     -37.02530000     -71.51830000
H      -46.35390000     -37.43990000     -70.92200000
