40
Properties=species:S:1:pos:R:3 #=T CELL(abcABC):=T 1.889726e+02=T 90.00000=T Traj:=T positionsangstrom=T Step:=T 0=T Bead:=T pbc="F F F"
C      -43.21820000     -36.07780000     -70.09770000
C      -43.79430000     -35.35270000     -69.04640000
C      -43.44750000     -34.01520000     -68.95300000
C      -42.41770000     -33.42350000     -69.71210000
C      -41.79570000     -34.18660000     -70.71000000
C      -42.24860000     -35.50040000     -70.90170000
H      -43.59220000     -37.09390000     -70.29100000
H      -43.90170000     -33.43880000     -68.23190000
H      -41.01750000     -33.81220000     -71.34340000
H      -41.79340000     -36.08950000     -71.73030000
C      -42.10940000     -31.92920000     -69.50140000
H      -41.06230000     -31.69520000     -69.20470000
H      -42.77500000     -31.58130000     -68.66070000
C      -44.85470000     -35.87280000     -68.10200000
H      -45.27910000     -36.80080000     -68.46810000
H      -44.48040000     -35.91860000     -67.06920000
S      -42.43190000     -30.81540000     -70.92280000
S      -46.25600000     -34.64310000     -67.81760000
C      -44.09850000     -31.18450000     -71.61140000
H      -44.95560000     -31.16980000     -70.91040000
H      -44.34720000     -30.28300000     -72.13710000
C      -47.05540000     -34.45680000     -69.49770000
H      -48.14540000     -34.33260000     -69.27680000
H      -46.85880000     -35.33430000     -70.03080000
C      -46.66300000     -33.14880000     -70.22920000
H      -46.87100000     -32.24490000     -69.56260000
H      -45.58330000     -33.24720000     -70.35160000
C      -44.17710000     -32.50050000     -72.35790000
H      -44.10750000     -33.23340000     -71.57430000
H      -43.37340000     -32.59590000     -73.06670000
C      -45.43910000     -32.61550000     -73.22460000
C      -45.27880000     -32.71380000     -74.59130000
C      -46.78280000     -32.93110000     -72.79790000
H      -44.37110000     -32.52490000     -75.16630000
C      -47.63410000     -33.09400000     -73.85580000
C      -47.47400000     -32.94750000     -71.54430000
C      -48.76500000     -33.29900000     -71.71260000
S      -46.73900000     -33.05750000     -75.39560000
S      -49.32550000     -33.24840000     -73.39040000
H      -49.51510000     -33.34710000     -70.96610000
