40
Properties=species:S:1:pos:R:3 #=T CELL(abcABC):=T 1.889726e+02=T 90.00000=T Traj:=T positionsangstrom=T Step:=T 0=T Bead:=T pbc="F F F"
C      -43.35610000     -35.83770000     -69.75870000
C      -43.86060000     -34.89730000     -68.88750000
C      -43.35030000     -33.58560000     -68.94720000
C      -42.31470000     -33.24840000     -69.82310000
C      -41.72980000     -34.25310000     -70.61080000
C      -42.32000000     -35.52210000     -70.60480000
H      -43.59020000     -36.85280000     -69.63040000
H      -43.87210000     -32.86580000     -68.24380000
H      -40.92630000     -33.95340000     -71.30160000
H      -41.87820000     -36.37540000     -71.12900000
C      -41.73560000     -31.80220000     -69.86400000
H      -40.65190000     -31.94110000     -70.24160000
H      -41.69750000     -31.31240000     -68.82620000
C      -44.89890000     -35.32730000     -67.86600000
H      -45.17430000     -36.36780000     -68.07020000
H      -44.45800000     -35.51300000     -66.91960000
S      -42.54230000     -30.71580000     -71.15080000
S      -46.38450000     -34.34130000     -67.70040000
C      -44.20310000     -31.28800000     -71.78140000
H      -44.84700000     -31.31320000     -70.90240000
H      -44.41110000     -30.56040000     -72.53000000
C      -47.05170000     -34.42560000     -69.37780000
H      -48.07670000     -34.51760000     -69.21550000
H      -46.69790000     -35.38790000     -69.84250000
C      -46.84180000     -33.16980000     -70.15360000
H      -47.42140000     -32.30560000     -69.74510000
H      -45.81370000     -32.73790000     -70.09650000
C      -44.23470000     -32.73350000     -72.29740000
H      -44.21900000     -33.43220000     -71.48410000
H      -43.33020000     -32.91250000     -72.88890000
C      -45.35190000     -33.12150000     -73.25240000
C      -45.12060000     -33.16760000     -74.60630000
C      -46.74190000     -33.22310000     -72.84770000
H      -44.24610000     -33.31190000     -75.26550000
C      -47.56340000     -33.24920000     -73.90610000
C      -47.46140000     -33.27210000     -71.60230000
C      -48.80350000     -33.37430000     -71.74120000
S      -46.70750000     -33.27910000     -75.45390000
S      -49.27370000     -33.33080000     -73.44040000
H      -49.50590000     -33.21890000     -70.91570000
