40
Properties=species:S:1:pos:R:3 #=T CELL(abcABC):=T 1.889726e+02=T 90.00000=T Traj:=T positionsangstrom=T Step:=T 0=T Bead:=T pbc="F F F"
C      -43.02360000     -35.79680000     -68.96810000
C      -43.78040000     -34.76540000     -68.36850000
C      -43.66910000     -33.42630000     -68.70700000
C      -42.77930000     -33.02570000     -69.67640000
C      -42.01810000     -34.00530000     -70.32570000
C      -42.15710000     -35.34240000     -69.94590000
H      -43.17870000     -36.80760000     -68.68920000
H      -44.24050000     -32.67540000     -68.07610000
H      -41.20880000     -33.85350000     -71.05870000
H      -41.47120000     -36.01400000     -70.50820000
C      -42.64700000     -31.48970000     -69.87230000
H      -41.93010000     -31.03950000     -69.18300000
H      -43.53380000     -30.95930000     -69.71080000
C      -44.85740000     -35.15040000     -67.39030000
H      -44.99050000     -36.26490000     -67.43970000
H      -44.67700000     -34.78290000     -66.40620000
S      -42.01620000     -31.14110000     -71.58090000
S      -46.44180000     -34.30100000     -67.70840000
C      -43.60360000     -31.21180000     -72.50270000
H      -44.31130000     -30.39890000     -72.17940000
H      -43.46510000     -30.97960000     -73.56860000
C      -46.74800000     -34.43120000     -69.52800000
H      -47.58280000     -35.08290000     -69.59250000
H      -45.83350000     -34.96030000     -69.96300000
C      -46.76670000     -33.07690000     -70.24960000
H      -47.28660000     -32.29500000     -69.73670000
H      -45.73360000     -32.64750000     -70.38320000
C      -44.17310000     -32.64040000     -72.53100000
H      -44.41880000     -33.05830000     -71.54170000
H      -43.39220000     -33.29380000     -72.86630000
C      -45.44470000     -32.81280000     -73.36790000
C      -45.38670000     -32.84160000     -74.75660000
C      -46.79990000     -33.15660000     -72.95510000
H      -44.57130000     -32.53100000     -75.40270000
C      -47.63000000     -33.43870000     -73.99660000
C      -47.42900000     -33.27730000     -71.62440000
C      -48.77550000     -33.58840000     -71.75760000
S      -46.87820000     -33.23450000     -75.52240000
S      -49.27580000     -33.85870000     -73.46150000
H      -49.47700000     -33.68920000     -70.89500000
