40
Properties=species:S:1:pos:R:3 #=T CELL(abcABC):=T 1.889726e+02=T 90.00000=T Traj:=T positionsangstrom=T Step:=T 0=T Bead:=T pbc="F F F"
C      -41.94380000     -34.54100000     -71.89000000
C      -42.97790000     -34.92120000     -72.72480000
C      -43.91550000     -35.89570000     -72.26100000
C      -43.73890000     -36.44800000     -70.99330000
C      -42.66160000     -36.05610000     -70.16630000
C      -41.76610000     -35.08190000     -70.65020000
H      -41.14240000     -33.92060000     -72.38300000
H      -44.61830000     -36.27700000     -73.02850000
H      -42.54740000     -36.54940000     -69.23130000
H      -40.86770000     -34.83950000     -70.10500000
C      -44.70380000     -37.49410000     -70.41200000
H      -44.61850000     -37.42880000     -69.26840000
H      -44.56640000     -38.54550000     -70.81850000
C      -43.18170000     -34.39730000     -74.13540000
H      -42.58250000     -34.91810000     -74.87550000
H      -44.22400000     -34.60410000     -74.46820000
S      -46.53000000     -37.19220000     -70.78660000
S      -42.75950000     -32.63060000     -74.31420000
C      -47.06350000     -35.64610000     -69.98480000
H      -48.15710000     -35.57990000     -70.03350000
H      -46.78660000     -35.74390000     -68.93120000
C      -44.16810000     -31.80670000     -73.48870000
H      -45.06960000     -32.13010000     -73.91050000
H      -43.98520000     -30.74790000     -73.82880000
C      -44.19580000     -31.91680000     -71.93130000
H      -44.27480000     -32.96370000     -71.66290000
H      -43.26940000     -31.49390000     -71.54750000
C      -46.49210000     -34.44820000     -70.79240000
H      -46.59830000     -34.63770000     -71.89270000
H      -45.35950000     -34.43450000     -70.80570000
C      -47.07430000     -33.05990000     -70.42480000
C      -48.26730000     -32.97610000     -69.71300000
C      -46.54450000     -31.76600000     -70.71920000
H      -48.73130000     -33.85120000     -69.24030000
C      -47.38640000     -30.74480000     -70.26670000
C      -45.37350000     -31.17940000     -71.29030000
C      -45.38610000     -29.82770000     -71.23300000
S      -48.77760000     -31.34070000     -69.43720000
S      -46.83910000     -29.08390000     -70.63540000
H      -44.66470000     -29.10210000     -71.68820000
