40
Properties=species:S:1:pos:R:3 #=T CELL(abcABC):=T 1.889726e+02=T 90.00000=T Traj:=T positionsangstrom=T Step:=T 0=T Bead:=T pbc="F F F"
C      -43.24040000     -36.00110000     -69.92810000
C      -43.83640000     -35.07410000     -68.99300000
C      -43.34660000     -33.76570000     -68.93880000
C      -42.33660000     -33.30610000     -69.83860000
C      -41.75870000     -34.21160000     -70.70480000
C      -42.18210000     -35.57030000     -70.70720000
H      -43.64760000     -37.01350000     -69.98000000
H      -43.81050000     -33.07260000     -68.14730000
H      -40.89660000     -33.92300000     -71.28950000
H      -41.70720000     -36.23750000     -71.41710000
C      -41.87410000     -31.92400000     -69.71730000
H      -40.83270000     -31.90280000     -69.86490000
H      -42.21740000     -31.60850000     -68.75520000
C      -44.82080000     -35.50360000     -67.94620000
H      -45.13580000     -36.56160000     -68.06880000
H      -44.29840000     -35.40290000     -66.96220000
S      -42.61610000     -30.71300000     -70.92090000
S      -46.29910000     -34.36750000     -67.73250000
C      -44.17780000     -31.37640000     -71.80100000
H      -45.06660000     -31.14870000     -71.20210000
H      -44.33190000     -30.61110000     -72.55490000
C      -47.17280000     -34.28420000     -69.43750000
H      -48.24050000     -34.55670000     -69.33120000
H      -46.70990000     -34.96300000     -70.17960000
C      -46.82220000     -33.01290000     -70.20600000
H      -47.02390000     -32.19630000     -69.61310000
H      -45.71230000     -33.08300000     -70.27490000
C      -44.13310000     -32.83960000     -72.36480000
H      -44.02130000     -33.54740000     -71.49480000
H      -43.30120000     -32.92690000     -73.08290000
C      -45.33780000     -32.96870000     -73.22490000
C      -45.25010000     -33.05620000     -74.60100000
C      -46.70790000     -33.06490000     -72.78490000
H      -44.37310000     -32.82740000     -75.13810000
C      -47.56560000     -33.05440000     -73.87680000
C      -47.51350000     -33.05410000     -71.56030000
C      -48.87260000     -33.11300000     -71.81760000
S      -46.77000000     -33.30770000     -75.39620000
S      -49.21640000     -33.40620000     -73.46650000
H      -49.58150000     -33.02490000     -70.99050000
