40
Properties=species:S:1:pos:R:3 #=T CELL(abcABC):=T 1.889726e+02=T 90.00000=T Traj:=T positionsangstrom=T Step:=T 0=T Bead:=T pbc="F F F"
C      -49.41680000     -32.33640000     -70.56960000
C      -48.41920000     -32.74890000     -69.74600000
C      -47.30260000     -31.90310000     -69.60220000
C      -47.14810000     -30.72670000     -70.36060000
C      -48.17520000     -30.37450000     -71.24520000
C      -49.33740000     -31.14620000     -71.30130000
H      -50.32910000     -32.94300000     -70.66890000
H      -46.49190000     -32.20640000     -68.93750000
H      -48.21510000     -29.38620000     -71.77920000
H      -50.18140000     -30.69840000     -71.85330000
C      -45.98200000     -29.83200000     -70.05060000
H      -45.48400000     -30.16810000     -69.14690000
H      -46.40910000     -28.87950000     -69.78660000
C      -48.57430000     -33.92820000     -68.80220000
H      -48.05800000     -33.73170000     -67.85100000
H      -49.64260000     -34.23550000     -68.60890000
S      -44.86440000     -29.54760000     -71.40430000
S      -47.83450000     -35.59630000     -69.48430000
C      -44.44640000     -31.27320000     -71.94870000
H      -45.40240000     -31.69330000     -72.34950000
H      -43.67110000     -31.12570000     -72.72080000
C      -46.12210000     -35.36510000     -70.08430000
H      -45.68490000     -36.38830000     -70.26120000
H      -45.52370000     -34.93590000     -69.24890000
C      -46.09940000     -34.57920000     -71.38590000
H      -46.95660000     -34.86640000     -72.03510000
H      -46.16400000     -33.53040000     -71.24140000
C      -43.74900000     -32.20260000     -70.85090000
H      -44.48740000     -32.63970000     -70.14900000
H      -42.98390000     -31.67160000     -70.36580000
C      -43.02230000     -33.35660000     -71.57320000
C      -41.71620000     -33.17340000     -71.98890000
C      -43.55600000     -34.54040000     -72.14220000
H      -40.98760000     -32.46700000     -71.58400000
C      -42.60520000     -35.27740000     -72.79330000
C      -44.86060000     -35.08920000     -72.10930000
C      -44.93840000     -36.26630000     -72.86020000
S      -41.05230000     -34.51340000     -72.85560000
S      -43.22510000     -36.78300000     -73.31190000
H      -45.66020000     -37.05520000     -72.88400000
