40
Properties=species:S:1:pos:R:3 #=T CELL(abcABC):=T 1.889726e+02=T 90.00000=T Traj:=T positionsangstrom=T Step:=T 0=T Bead:=T pbc="F F F"
C      -47.10220000     -31.46630000     -68.91150000
C      -46.48270000     -32.65720000     -69.37010000
C      -45.08910000     -32.55370000     -69.76930000
C      -44.54810000     -31.32640000     -69.73290000
C      -45.09490000     -30.23580000     -69.07140000
C      -46.42600000     -30.29090000     -68.72800000
H      -48.15960000     -31.56690000     -68.77470000
H      -44.60500000     -33.35280000     -70.34710000
H      -44.48170000     -29.33430000     -69.11830000
H      -46.93970000     -29.51200000     -68.19140000
C      -43.25550000     -31.10110000     -70.44730000
H      -42.65800000     -32.00360000     -70.52850000
H      -42.68800000     -30.33900000     -69.94590000
C      -47.22650000     -33.96670000     -69.33990000
H      -46.48430000     -34.74670000     -69.61630000
H      -47.71590000     -34.25300000     -68.38080000
S      -43.55560000     -30.23160000     -72.05490000
S      -48.72030000     -33.85910000     -70.51980000
C      -44.95510000     -31.21400000     -72.74480000
H      -45.68260000     -31.43850000     -72.00520000
H      -45.45860000     -30.51730000     -73.38770000
C      -47.87700000     -33.29460000     -72.02070000
H      -46.98340000     -32.74420000     -71.86720000
H      -48.56240000     -32.69140000     -72.51040000
C      -47.58220000     -34.46880000     -72.99260000
H      -48.44090000     -35.07800000     -72.87640000
H      -47.44980000     -34.17690000     -74.05710000
C      -44.70370000     -32.35420000     -73.64210000
H      -44.09150000     -31.96000000     -74.36490000
H      -45.67030000     -32.59970000     -74.19730000
C      -44.18670000     -33.62970000     -72.96150000
C      -42.79570000     -33.76550000     -72.80270000
C      -44.94820000     -34.71330000     -72.48250000
H      -42.01230000     -33.05100000     -73.00900000
C      -44.09200000     -35.66420000     -71.91780000
C      -46.32960000     -35.16950000     -72.43650000
C      -46.48370000     -36.39880000     -71.77490000
S      -42.35110000     -35.25980000     -72.01100000
S      -44.92070000     -37.10600000     -71.40440000
H      -47.42770000     -36.93460000     -71.56860000
