40
Properties=species:S:1:pos:R:3 #=T CELL(abcABC):=T 1.889726e+02=T 90.00000=T Traj:=T positionsangstrom=T Step:=T 0=T Bead:=T pbc="F F F"
C      -47.02250000     -31.54990000     -68.70380000
C      -46.36260000     -32.71220000     -69.18950000
C      -45.07900000     -32.51050000     -69.71410000
C      -44.59220000     -31.13960000     -69.85570000
C      -45.24870000     -30.04780000     -69.34160000
C      -46.47380000     -30.20400000     -68.74200000
H      -47.96560000     -31.64750000     -68.25970000
H      -44.39340000     -33.33370000     -70.02330000
H      -44.72880000     -29.12820000     -69.25360000
H      -47.22890000     -29.39800000     -68.44000000
C      -43.33450000     -31.00440000     -70.58760000
H      -42.87160000     -31.98280000     -70.62300000
H      -42.65030000     -30.24050000     -70.25140000
C      -47.06760000     -34.04100000     -69.29690000
H      -46.27180000     -34.73840000     -69.63460000
H      -47.49650000     -34.52980000     -68.46530000
S      -43.71110000     -30.38590000     -72.30720000
S      -48.64160000     -34.00090000     -70.27640000
C      -45.18830000     -31.25140000     -72.81700000
H      -45.64500000     -31.55350000     -71.86840000
H      -45.85760000     -30.54530000     -73.31810000
C      -48.12870000     -33.42120000     -72.01540000
H      -47.47980000     -32.47650000     -71.87520000
H      -49.06810000     -32.99860000     -72.44520000
C      -47.50740000     -34.48790000     -72.90900000
H      -48.23810000     -35.26070000     -73.23340000
H      -47.21380000     -34.01580000     -73.84900000
C      -44.81310000     -32.37850000     -73.74390000
H      -44.03160000     -32.01330000     -74.44600000
H      -45.68770000     -32.53800000     -74.37070000
C      -44.25170000     -33.63490000     -73.12540000
C      -42.87900000     -33.60990000     -72.84700000
C      -44.87400000     -34.80740000     -72.57200000
H      -42.29700000     -32.77500000     -73.03060000
C      -43.94410000     -35.68680000     -71.93230000
C      -46.26810000     -35.28510000     -72.48110000
C      -46.28010000     -36.57380000     -71.90460000
S      -42.36740000     -34.97040000     -71.88460000
S      -44.75040000     -37.07290000     -71.27600000
H      -47.20890000     -37.06230000     -71.64470000
