40
Properties=species:S:1:pos:R:3 #=T CELL(abcABC):=T 1.889726e+02=T 90.00000=T Traj:=T positionsangstrom=T Step:=T 0=T Bead:=T pbc="F F F"
C      -47.22620000     -31.48260000     -68.49860000
C      -46.73290000     -32.61130000     -69.21080000
C      -45.49130000     -32.53480000     -69.71850000
C      -44.71950000     -31.34620000     -69.65280000
C      -45.22130000     -30.26400000     -68.90240000
C      -46.49150000     -30.28500000     -68.33160000
H      -48.17750000     -31.50470000     -67.95690000
H      -45.06620000     -33.34480000     -70.28660000
H      -44.54050000     -29.47930000     -68.56160000
H      -46.87270000     -29.38360000     -67.90500000
C      -43.29660000     -31.33670000     -70.10990000
H      -42.96470000     -32.31400000     -70.22540000
H      -42.64280000     -30.85940000     -69.41490000
C      -47.57290000     -33.82290000     -69.32900000
H      -47.12010000     -34.81700000     -69.58280000
H      -48.02200000     -33.91080000     -68.32800000
S      -43.13240000     -30.61850000     -71.90790000
S      -48.87460000     -33.70360000     -70.65500000
C      -44.69600000     -31.09380000     -72.73690000
H      -45.38840000     -31.34080000     -71.98660000
H      -45.14980000     -30.32370000     -73.26670000
C      -47.92480000     -33.01450000     -72.10100000
H      -47.09880000     -32.42070000     -71.70630000
H      -48.56480000     -32.32140000     -72.71810000
C      -47.45170000     -34.09930000     -73.00810000
H      -48.36770000     -34.66660000     -73.32630000
H      -47.12930000     -33.63350000     -73.89980000
C      -44.44210000     -32.30740000     -73.69140000
H      -43.65500000     -31.98890000     -74.43380000
H      -45.32000000     -32.54710000     -74.23190000
C      -43.99750000     -33.57190000     -72.97960000
C      -42.68350000     -33.86240000     -72.82940000
C      -44.87960000     -34.65660000     -72.68020000
H      -41.85780000     -33.14240000     -73.06290000
C      -44.10210000     -35.72530000     -72.22440000
C      -46.29210000     -35.01660000     -72.61730000
C      -46.50940000     -36.20630000     -72.00230000
S      -42.35040000     -35.49750000     -72.12100000
S      -44.98860000     -37.07120000     -71.56620000
H      -47.40860000     -36.79940000     -71.80790000
