40
Properties=species:S:1:pos:R:3 #=T CELL(abcABC):=T 1.889726e+02=T 90.00000=T Traj:=T positionsangstrom=T Step:=T 0=T Bead:=T pbc="F F F"
C      -47.03760000     -31.55650000     -68.73290000
C      -46.25280000     -32.62150000     -69.16110000
C      -45.00800000     -32.35400000     -69.86220000
C      -44.61400000     -31.06930000     -70.25780000
C      -45.46050000     -30.02010000     -69.77320000
C      -46.52080000     -30.20990000     -68.94190000
H      -47.91130000     -31.77020000     -68.20600000
H      -44.43480000     -33.25440000     -70.16760000
H      -45.20580000     -29.02370000     -70.00850000
H      -47.03030000     -29.41980000     -68.43620000
C      -43.47490000     -30.82830000     -71.19600000
H      -42.94420000     -31.75820000     -71.32730000
H      -42.71130000     -30.07790000     -70.88680000
C      -46.68890000     -34.10370000     -68.75920000
H      -45.88840000     -34.75360000     -69.10930000
H      -46.72410000     -34.21920000     -67.72750000
S      -44.31670000     -30.25450000     -72.85970000
S      -48.23600000     -34.47900000     -69.66050000
C      -45.66800000     -31.48400000     -73.09090000
H      -46.00370000     -31.89590000     -72.14920000
H      -46.48910000     -30.96910000     -73.49870000
C      -48.05180000     -33.67430000     -71.28350000
H      -47.37950000     -32.78840000     -71.29830000
H      -49.04330000     -33.42670000     -71.64930000
C      -47.52090000     -34.60690000     -72.31580000
H      -48.15210000     -35.46450000     -72.45730000
H      -47.41050000     -34.12480000     -73.27870000
C      -45.20350000     -32.62890000     -74.02480000
H      -44.69350000     -32.24830000     -74.88980000
H      -46.10130000     -33.01200000     -74.43180000
C      -44.38600000     -33.62760000     -73.29460000
C      -43.05970000     -33.63710000     -73.43610000
C      -44.88660000     -34.73890000     -72.46240000
H      -42.54110000     -32.96550000     -74.06880000
C      -43.83790000     -35.49320000     -71.90230000
C      -46.18630000     -35.26560000     -72.02490000
C      -46.08680000     -36.38940000     -71.31040000
S      -42.26720000     -34.86170000     -72.38880000
S      -44.37370000     -36.78580000     -70.82620000
H      -46.97930000     -37.07530000     -71.11830000
