40
Properties=species:S:1:pos:R:3 #=T CELL(abcABC):=T 1.889726e+02=T 90.00000=T Traj:=T positionsangstrom=T Step:=T 0=T Bead:=T pbc="F F F"
C      -47.02480000     -31.46810000     -68.49860000
C      -46.30050000     -32.63880000     -69.08570000
C      -45.20030000     -32.32630000     -69.91540000
C      -44.70570000     -31.07420000     -70.20580000
C      -45.46760000     -30.01210000     -69.74130000
C      -46.46580000     -30.23620000     -68.79490000
H      -47.67470000     -31.54460000     -67.64570000
H      -44.65530000     -33.21530000     -70.22600000
H      -45.15060000     -28.97200000     -69.84200000
H      -46.99350000     -29.31710000     -68.38940000
C      -43.51130000     -30.90920000     -71.12800000
H      -42.96400000     -31.87840000     -71.17420000
H      -42.89780000     -30.08640000     -70.65580000
C      -46.67740000     -34.09030000     -68.79440000
H      -45.94640000     -34.88070000     -69.07400000
H      -46.81450000     -34.13020000     -67.67210000
S      -43.92950000     -30.34900000     -72.84720000
S      -48.31010000     -34.50990000     -69.69430000
C      -45.40730000     -31.27910000     -73.32660000
H      -46.05500000     -31.51120000     -72.44950000
H      -45.96610000     -30.60970000     -74.09110000
C      -48.27020000     -33.83410000     -71.42000000
H      -47.84310000     -32.83270000     -71.39650000
H      -49.32140000     -33.71830000     -71.54500000
C      -47.58260000     -34.79710000     -72.47890000
H      -48.22410000     -35.61540000     -72.49460000
H      -47.72350000     -34.34040000     -73.49690000
C      -45.17210000     -32.56060000     -74.10100000
H      -44.76780000     -32.36530000     -75.08100000
H      -46.17580000     -33.11190000     -74.15400000
C      -44.33550000     -33.60340000     -73.31820000
C      -42.98330000     -33.59900000     -73.23750000
C      -44.93780000     -34.64590000     -72.45120000
H      -42.27580000     -32.87690000     -73.68700000
C      -43.91110000     -35.36070000     -71.85180000
C      -46.20210000     -35.30710000     -72.19590000
C      -46.09750000     -36.35240000     -71.36930000
S      -42.34140000     -34.79430000     -72.16940000
S      -44.47690000     -36.81630000     -71.01540000
H      -46.84440000     -36.97940000     -70.91180000
