40
Properties=species:S:1:pos:R:3 #=T CELL(abcABC):=T 1.889726e+02=T 90.00000=T Traj:=T positionsangstrom=T Step:=T 0=T Bead:=T pbc="F F F"
C      -46.99390000     -31.48990000     -68.51570000
C      -46.38760000     -32.65380000     -69.14820000
C      -45.30300000     -32.33840000     -70.00600000
C      -44.80520000     -31.06130000     -70.19830000
C      -45.35640000     -29.97400000     -69.54560000
C      -46.48070000     -30.22000000     -68.72970000
H      -47.98490000     -31.62340000     -67.99160000
H      -44.86490000     -33.18520000     -70.45510000
H      -45.03300000     -28.92800000     -69.67290000
H      -46.92140000     -29.41060000     -68.11610000
C      -43.46580000     -30.89210000     -71.01080000
H      -42.88680000     -31.80430000     -71.03890000
H      -42.92440000     -30.08790000     -70.56800000
C      -46.84240000     -34.02620000     -68.89070000
H      -46.16850000     -34.82990000     -69.08710000
H      -47.09740000     -34.17360000     -67.80970000
S      -43.64440000     -30.34600000     -72.81770000
S      -48.34390000     -34.55040000     -69.87170000
C      -45.26910000     -31.20050000     -73.34730000
H      -45.92660000     -31.18400000     -72.56990000
H      -45.59900000     -30.45030000     -74.06330000
C      -47.98010000     -33.74870000     -71.47410000
H      -47.25080000     -32.93900000     -71.27250000
H      -48.85390000     -33.17870000     -71.92590000
C      -47.55000000     -34.65420000     -72.69360000
H      -48.32590000     -35.42820000     -72.84920000
H      -47.36410000     -34.09320000     -73.63940000
C      -45.14320000     -32.57180000     -74.05820000
H      -44.51320000     -32.48430000     -74.92710000
H      -46.21220000     -32.91100000     -74.23530000
C      -44.41570000     -33.55500000     -73.17190000
C      -43.05710000     -33.43960000     -72.98490000
C      -44.96590000     -34.77820000     -72.54770000
H      -42.41780000     -32.63840000     -73.46900000
C      -43.98060000     -35.49210000     -71.84440000
C      -46.27920000     -35.40370000     -72.28200000
C      -46.24570000     -36.46730000     -71.41330000
S      -42.42050000     -34.79510000     -72.06730000
S      -44.57710000     -36.87730000     -70.96610000
H      -47.04120000     -36.99900000     -71.02440000
