40
Properties=species:S:1:pos:R:3 #=T CELL(abcABC):=T 1.889726e+02=T 90.00000=T Traj:=T positionsangstrom=T Step:=T 0=T Bead:=T pbc="F F F"
C      -47.16830000     -31.53160000     -68.40760000
C      -46.75600000     -32.62140000     -69.07040000
C      -45.50370000     -32.56500000     -69.62410000
C      -44.67490000     -31.46170000     -69.45120000
C      -45.13200000     -30.32540000     -68.77260000
C      -46.39260000     -30.36010000     -68.18230000
H      -48.15690000     -31.53680000     -67.93070000
H      -45.09800000     -33.41740000     -70.15820000
H      -44.51540000     -29.43710000     -68.87800000
H      -46.82270000     -29.52710000     -67.56100000
C      -43.28870000     -31.53130000     -70.09990000
H      -43.00420000     -32.61730000     -70.20450000
H      -42.45110000     -30.93360000     -69.57070000
C      -47.69430000     -33.81670000     -69.22890000
H      -47.02650000     -34.65160000     -69.43280000
H      -48.17800000     -33.86140000     -68.28130000
S      -43.02930000     -30.84790000     -71.80690000
S      -48.90390000     -33.60800000     -70.66860000
C      -44.58550000     -31.15480000     -72.80080000
H      -45.37800000     -31.43880000     -72.07960000
H      -44.81190000     -30.20330000     -73.40210000
C      -47.92520000     -32.88900000     -72.07740000
H      -47.17560000     -32.31180000     -71.55410000
H      -48.63300000     -32.27360000     -72.59110000
C      -47.36680000     -33.85120000     -73.10600000
H      -48.17550000     -34.42280000     -73.52600000
H      -46.94190000     -33.27820000     -73.94420000
C      -44.40240000     -32.28410000     -73.84330000
H      -43.70160000     -31.97170000     -74.60590000
H      -45.35740000     -32.38050000     -74.35300000
C      -43.98830000     -33.59490000     -73.19810000
C      -42.67410000     -33.92660000     -73.12870000
C      -44.83860000     -34.63370000     -72.62640000
H      -41.86190000     -33.33540000     -73.46810000
C      -44.08540000     -35.77250000     -72.09840000
C      -46.30160000     -34.84530000     -72.61740000
C      -46.60990000     -36.05680000     -72.03730000
S      -42.37770000     -35.44010000     -72.21500000
S      -45.18040000     -37.01960000     -71.63000000
H      -47.51890000     -36.59190000     -71.93930000
