40
Properties=species:S:1:pos:R:3 #=T CELL(abcABC):=T 1.889726e+02=T 90.00000=T Traj:=T positionsangstrom=T Step:=T 0=T Bead:=T pbc="F F F"
C      -47.17780000     -31.51940000     -68.42580000
C      -46.78260000     -32.67360000     -69.09730000
C      -45.51420000     -32.66650000     -69.67760000
C      -44.56750000     -31.67930000     -69.51180000
C      -44.97370000     -30.54580000     -68.78940000
C      -46.27460000     -30.49880000     -68.18910000
H      -48.23280000     -31.43810000     -68.08070000
H      -45.19880000     -33.55640000     -70.21860000
H      -44.20010000     -29.79050000     -68.68840000
H      -46.58390000     -29.57370000     -67.66500000
C      -43.18260000     -31.86370000     -70.12960000
H      -43.12990000     -32.92820000     -70.19600000
H      -42.42590000     -31.52080000     -69.48390000
C      -47.73360000     -33.78660000     -69.30680000
H      -47.20590000     -34.74110000     -69.40220000
H      -48.48960000     -33.92960000     -68.46750000
S      -42.99220000     -30.84780000     -71.69580000
S      -48.98740000     -33.56480000     -70.69380000
C      -44.52180000     -31.26360000     -72.58440000
H      -45.21350000     -31.70710000     -71.93420000
H      -45.00390000     -30.33560000     -72.87310000
C      -47.93070000     -32.89220000     -72.04550000
H      -46.97550000     -32.39180000     -71.59690000
H      -48.41950000     -32.03400000     -72.46670000
C      -47.41830000     -33.88900000     -73.18600000
H      -48.22810000     -34.56920000     -73.42650000
H      -47.13830000     -33.25820000     -74.08590000
C      -44.26050000     -32.14980000     -73.78420000
H      -43.46110000     -31.74490000     -74.40350000
H      -45.15460000     -32.26470000     -74.47910000
C      -43.95390000     -33.50210000     -73.22190000
C      -42.65710000     -33.90600000     -73.01160000
C      -44.90110000     -34.50760000     -72.75570000
H      -41.83130000     -33.32260000     -73.28880000
C      -44.20160000     -35.59060000     -72.18550000
C      -46.31620000     -34.71560000     -72.63950000
C      -46.63350000     -35.92180000     -72.04240000
S      -42.43460000     -35.46710000     -72.36090000
S      -45.23220000     -36.86760000     -71.51640000
H      -47.59160000     -36.26910000     -71.88640000
