40
Properties=species:S:1:pos:R:3 #=T CELL(abcABC):=T 1.889726e+02=T 90.00000=T Traj:=T positionsangstrom=T Step:=T 0=T Bead:=T pbc="F F F"
C      -42.87080000     -35.36890000     -68.60270000
C      -43.70650000     -34.25460000     -68.36720000
C      -43.49990000     -33.02470000     -68.99230000
C      -42.50530000     -32.91810000     -70.01100000
C      -41.64520000     -34.06000000     -70.18440000
C      -41.89160000     -35.29940000     -69.58030000
H      -43.10260000     -36.29600000     -68.13270000
H      -44.12810000     -32.20810000     -68.70430000
H      -40.95200000     -33.88930000     -71.00520000
H      -41.19970000     -36.18960000     -69.75570000
C      -42.17840000     -31.55220000     -70.56850000
H      -41.21350000     -31.23250000     -70.21760000
H      -42.97760000     -30.84340000     -70.24330000
C      -44.90430000     -34.55380000     -67.43500000
H      -45.26860000     -35.47990000     -67.76170000
H      -44.41040000     -34.63980000     -66.44730000
S      -42.06570000     -31.50960000     -72.38590000
S      -46.17160000     -33.25460000     -67.41550000
C      -43.83330000     -31.92590000     -72.85160000
H      -44.42270000     -31.24950000     -72.31690000
H      -43.72940000     -31.64700000     -73.88340000
C      -47.17360000     -33.70290000     -68.92280000
H      -48.07980000     -33.13210000     -68.80650000
H      -47.37260000     -34.73870000     -68.91570000
C      -46.53670000     -33.25250000     -70.20920000
H      -46.27270000     -32.12710000     -70.14510000
H      -45.56690000     -33.68390000     -70.34570000
C      -44.23480000     -33.36680000     -72.71340000
H      -44.27370000     -33.79580000     -71.67940000
H      -43.61130000     -34.03870000     -73.27970000
C      -45.54450000     -33.53640000     -73.47340000
C      -45.57280000     -33.51380000     -74.83340000
C      -46.83130000     -33.54870000     -72.84220000
H      -44.71520000     -33.50060000     -75.50460000
C      -47.86510000     -33.59940000     -73.79000000
C      -47.38440000     -33.50880000     -71.49160000
C      -48.81720000     -33.45400000     -71.50770000
S      -47.22460000     -33.58660000     -75.42250000
S      -49.42610000     -33.79850000     -73.08410000
H      -49.49100000     -33.44370000     -70.69950000
