40
Properties=species:S:1:pos:R:3 #=T CELL(abcABC):=T 1.889726e+02=T 90.00000=T Traj:=T positionsangstrom=T Step:=T 0=T Bead:=T pbc="F F F"
C      -42.91010000     -35.47240000     -69.03350000
C      -43.75060000     -34.52460000     -68.53680000
C      -43.56260000     -33.18420000     -68.94590000
C      -42.52450000     -32.81900000     -69.73960000
C      -41.55210000     -33.79970000     -70.12410000
C      -41.74630000     -35.12440000     -69.73910000
H      -43.07140000     -36.53170000     -68.76950000
H      -44.23280000     -32.32600000     -68.68030000
H      -40.80260000     -33.48870000     -70.81030000
H      -41.10760000     -35.82240000     -70.16660000
C      -42.33980000     -31.43680000     -70.27400000
H      -41.37440000     -31.03620000     -69.85600000
H      -43.12720000     -30.72500000     -70.01970000
C      -44.99520000     -34.81120000     -67.69940000
H      -45.62070000     -35.54910000     -68.22380000
H      -44.76680000     -35.27960000     -66.73360000
S      -42.09260000     -31.43810000     -72.18090000
S      -46.08240000     -33.36770000     -67.41890000
C      -43.77740000     -31.76890000     -72.84670000
H      -44.42830000     -31.28660000     -72.14310000
H      -43.73560000     -31.35510000     -73.81040000
C      -47.10440000     -33.40880000     -68.99980000
H      -47.78290000     -32.60530000     -68.97730000
H      -47.73120000     -34.31880000     -68.91350000
C      -46.28590000     -33.38880000     -70.28520000
H      -45.66350000     -32.55130000     -70.36640000
H      -45.73770000     -34.36040000     -70.34450000
C      -44.14980000     -33.27280000     -73.01270000
H      -44.20740000     -33.77970000     -72.09630000
H      -43.50560000     -33.82810000     -73.64580000
C      -45.47570000     -33.43130000     -73.66560000
C      -45.75610000     -33.84180000     -74.90770000
C      -46.81280000     -33.40940000     -72.88960000
H      -45.06520000     -33.97390000     -75.77010000
C      -47.89900000     -33.60250000     -73.74760000
C      -47.21420000     -33.31780000     -71.50290000
C      -48.62810000     -33.27690000     -71.38250000
S      -47.44330000     -34.03130000     -75.40290000
S      -49.45110000     -33.52650000     -72.88690000
H      -49.15320000     -33.05190000     -70.43160000
