40
Properties=species:S:1:pos:R:3 #=T CELL(abcABC):=T 1.889726e+02=T 90.00000=T Traj:=T positionsangstrom=T Step:=T 0=T Bead:=T pbc="F F F"
C      -47.13800000     -31.47810000     -68.60260000
C      -46.81430000     -32.70930000     -69.15250000
C      -45.49620000     -32.92180000     -69.69430000
C      -44.43140000     -31.97770000     -69.55770000
C      -44.81230000     -30.84600000     -68.81870000
C      -46.06180000     -30.59790000     -68.31940000
H      -48.16150000     -31.31970000     -68.25830000
H      -45.24040000     -33.88710000     -70.15870000
H      -44.02660000     -30.13420000     -68.73980000
H      -46.19640000     -29.67040000     -67.73940000
C      -43.14630000     -32.13490000     -70.25080000
H      -43.00380000     -33.11030000     -70.77410000
H      -42.24540000     -32.04700000     -69.52150000
C      -47.88750000     -33.72520000     -69.42300000
H      -47.40360000     -34.62220000     -69.85290000
H      -48.43600000     -33.91520000     -68.52240000
S      -42.88780000     -30.88940000     -71.56290000
S      -49.03970000     -33.22720000     -70.80680000
C      -44.39910000     -31.04780000     -72.65140000
H      -45.28630000     -31.30100000     -72.06320000
H      -44.60970000     -30.08880000     -73.07050000
C      -47.84900000     -32.66040000     -72.17270000
H      -46.95360000     -32.21790000     -71.80790000
H      -48.47580000     -31.90980000     -72.69680000
C      -47.45780000     -33.80550000     -73.12250000
H      -48.36450000     -34.37380000     -73.49040000
H      -47.02710000     -33.27220000     -73.95700000
C      -44.19570000     -32.16580000     -73.71280000
H      -43.28390000     -31.92880000     -74.29740000
H      -44.96690000     -32.13670000     -74.47380000
C      -43.92520000     -33.54190000     -73.14230000
C      -42.60470000     -33.99930000     -72.95830000
C      -44.91740000     -34.45660000     -72.61670000
H      -41.73420000     -33.51050000     -73.39700000
C      -44.32120000     -35.60640000     -72.10230000
C      -46.36540000     -34.68890000     -72.63660000
C      -46.71270000     -35.88100000     -72.03950000
S      -42.55600000     -35.61920000     -72.30240000
S      -45.37800000     -36.74980000     -71.38220000
H      -47.76960000     -36.23920000     -71.93490000
