40
Properties=species:S:1:pos:R:3 #=T CELL(abcABC):=T 1.889726e+02=T 90.00000=T Traj:=T positionsangstrom=T Step:=T 0=T Bead:=T pbc="F F F"
C      -43.07210000     -35.35630000     -68.87690000
C      -43.67520000     -34.22490000     -68.38990000
C      -43.34060000     -32.96450000     -68.86230000
C      -42.29630000     -32.79030000     -69.81400000
C      -41.56180000     -33.94880000     -70.15950000
C      -41.95870000     -35.20860000     -69.71320000
H      -43.36590000     -36.31300000     -68.40990000
H      -43.93590000     -32.13950000     -68.54230000
H      -40.68720000     -33.75160000     -70.83180000
H      -41.49550000     -36.12530000     -70.07850000
C      -41.94440000     -31.50360000     -70.45240000
H      -40.91210000     -31.13590000     -70.21370000
H      -42.60550000     -30.74380000     -70.08230000
C      -44.75430000     -34.27060000     -67.38900000
H      -45.16860000     -35.28280000     -67.09930000
H      -44.31820000     -33.99830000     -66.40050000
S      -41.83260000     -31.71030000     -72.25890000
S      -46.27460000     -33.22510000     -67.49820000
C      -43.67800000     -31.82100000     -72.68340000
H      -44.26600000     -31.39020000     -71.80980000
H      -43.90610000     -31.32280000     -73.67540000
C      -47.20190000     -33.91020000     -68.93490000
H      -48.32510000     -33.64980000     -68.88390000
H      -47.16350000     -34.99390000     -68.88560000
C      -46.65080000     -33.40770000     -70.26660000
H      -46.46480000     -32.33850000     -70.11780000
H      -45.76920000     -33.92290000     -70.48070000
C      -44.26040000     -33.24830000     -72.83180000
H      -44.18020000     -33.61270000     -71.84790000
H      -43.51830000     -33.79100000     -73.40910000
C      -45.61980000     -33.38540000     -73.46460000
C      -45.69890000     -33.44820000     -74.79220000
C      -46.93760000     -33.48340000     -72.87020000
H      -44.92870000     -33.57550000     -75.49920000
C      -47.93910000     -33.51950000     -73.81460000
C      -47.47790000     -33.67000000     -71.50200000
C      -48.84600000     -33.88460000     -71.52490000
S      -47.28320000     -33.65040000     -75.41090000
S      -49.54150000     -33.71790000     -73.18270000
H      -49.35840000     -33.84360000     -70.62450000
