40
Properties=species:S:1:pos:R:3 #=T CELL(abcABC):=T 1.889726e+02=T 90.00000=T Traj:=T positionsangstrom=T Step:=T 0=T Bead:=T pbc="F F F"
C      -47.04680000     -31.71680000     -68.34350000
C      -46.72740000     -32.70270000     -69.26390000
C      -45.41920000     -32.76490000     -69.78660000
C      -44.47860000     -31.75130000     -69.50740000
C      -44.89740000     -30.65630000     -68.75240000
C      -46.15710000     -30.64010000     -68.16460000
H      -48.10570000     -31.62320000     -68.07820000
H      -45.07960000     -33.54380000     -70.46630000
H      -44.24590000     -29.78330000     -68.65560000
H      -46.42220000     -29.72990000     -67.58550000
C      -43.01480000     -32.02920000     -70.01200000
H      -42.78760000     -33.04890000     -70.10990000
H      -42.45840000     -31.56900000     -69.26910000
C      -47.84550000     -33.69500000     -69.54260000
H      -47.47060000     -34.69170000     -69.90400000
H      -48.28790000     -33.83920000     -68.55330000
S      -42.76530000     -31.09330000     -71.58530000
S      -49.06220000     -33.06250000     -70.81800000
C      -44.31780000     -31.30110000     -72.51960000
H      -45.11920000     -31.60000000     -71.84380000
H      -44.50640000     -30.27230000     -72.85930000
C      -47.93630000     -32.48980000     -72.12190000
H      -47.14910000     -31.93470000     -71.52690000
H      -48.44790000     -31.69990000     -72.63950000
C      -47.28450000     -33.58450000     -73.09770000
H      -48.16880000     -34.14040000     -73.38260000
H      -46.79300000     -33.22480000     -74.01060000
C      -44.25220000     -32.20580000     -73.71980000
H      -43.36800000     -31.88790000     -74.28060000
H      -45.15450000     -32.14500000     -74.34250000
C      -44.01930000     -33.62020000     -73.26230000
C      -42.72220000     -34.06820000     -73.16050000
C      -44.93160000     -34.61100000     -72.75200000
H      -41.73830000     -33.52530000     -73.37210000
C      -44.32160000     -35.74760000     -72.23310000
C      -46.37940000     -34.66020000     -72.54050000
C      -46.82350000     -35.78840000     -71.93000000
S      -42.52820000     -35.55710000     -72.25920000
S      -45.48980000     -36.89800000     -71.56010000
H      -47.92170000     -35.96140000     -71.66570000
