40
Properties=species:S:1:pos:R:3 #=T CELL(abcABC):=T 1.889726e+02=T 90.00000=T Traj:=T positionsangstrom=T Step:=T 0=T Bead:=T pbc="F F F"
C      -42.99310000     -35.49850000     -69.11190000
C      -43.70270000     -34.49240000     -68.46380000
C      -43.33250000     -33.19920000     -68.77540000
C      -42.49040000     -32.78810000     -69.81550000
C      -41.72640000     -33.82060000     -70.31850000
C      -42.00280000     -35.15420000     -70.02550000
H      -43.13510000     -36.53680000     -68.86480000
H      -44.03910000     -32.48470000     -68.25920000
H      -41.24470000     -33.53620000     -71.27050000
H      -41.38490000     -35.91190000     -70.43140000
C      -42.44730000     -31.35630000     -70.16640000
H      -41.61570000     -30.81940000     -69.63060000
H      -43.43340000     -30.89500000     -69.84230000
C      -44.66320000     -34.86830000     -67.44280000
H      -44.86440000     -35.95440000     -67.54390000
H      -44.31550000     -34.68520000     -66.42450000
S      -42.13100000     -30.93900000     -71.97840000
S      -46.31360000     -34.02110000     -67.44340000
C      -43.88600000     -31.31470000     -72.58350000
H      -44.63550000     -31.04180000     -71.85550000
H      -44.00460000     -30.64830000     -73.47870000
C      -47.00550000     -34.39920000     -69.11940000
H      -48.14880000     -34.26400000     -69.03970000
H      -46.82160000     -35.41770000     -69.41470000
C      -46.47600000     -33.50050000     -70.24610000
H      -46.40290000     -32.41390000     -69.98990000
H      -45.44690000     -33.73110000     -70.42680000
C      -44.24260000     -32.84350000     -72.83890000
H      -44.19550000     -33.25740000     -71.85700000
H      -43.45060000     -33.38080000     -73.43480000
C      -45.50550000     -33.07090000     -73.55120000
C      -45.61330000     -33.12080000     -74.92960000
C      -46.78310000     -33.44350000     -72.88460000
H      -44.86610000     -32.87170000     -75.58340000
C      -47.81970000     -33.48320000     -73.80550000
C      -47.27830000     -33.67060000     -71.52190000
C      -48.63710000     -33.99260000     -71.54030000
S      -47.26260000     -33.31070000     -75.45110000
S      -49.31070000     -34.04030000     -73.14270000
H      -49.30160000     -34.19290000     -70.69640000
