40
Properties=species:S:1:pos:R:3 #=T CELL(abcABC):=T 1.889726e+02=T 90.00000=T Traj:=T positionsangstrom=T Step:=T 0=T Bead:=T pbc="F F F"
C      -47.17330000     -31.86930000     -68.51150000
C      -46.78270000     -32.87890000     -69.41390000
C      -45.37630000     -32.94270000     -69.74170000
C      -44.47430000     -32.07970000     -69.15500000
C      -44.87310000     -31.11390000     -68.22360000
C      -46.24090000     -30.96310000     -67.99320000
H      -48.20750000     -31.75790000     -68.41000000
H      -44.98180000     -33.66730000     -70.46230000
H      -44.17740000     -30.39410000     -67.80880000
H      -46.67990000     -30.18710000     -67.40760000
C      -42.90890000     -32.35590000     -69.48680000
H      -42.72000000     -33.42580000     -69.78280000
H      -42.32320000     -32.18420000     -68.58930000
C      -47.74650000     -33.87200000     -69.98070000
H      -47.32960000     -34.77360000     -70.39610000
H      -48.33220000     -34.28030000     -69.17710000
S      -42.36230000     -31.10990000     -70.84850000
S      -48.91740000     -33.29270000     -71.23760000
C      -43.99500000     -30.99600000     -71.82700000
H      -44.89150000     -31.18000000     -71.14660000
H      -43.95580000     -29.93430000     -72.07420000
C      -47.76800000     -32.38580000     -72.41350000
H      -46.87130000     -32.22420000     -71.81500000
H      -48.27670000     -31.47460000     -72.74180000
C      -47.38110000     -33.23460000     -73.61410000
H      -48.20450000     -33.74980000     -74.06630000
H      -46.97070000     -32.65860000     -74.47280000
C      -43.91020000     -31.78630000     -73.12670000
H      -42.88090000     -31.56510000     -73.56660000
H      -44.73210000     -31.46810000     -73.75640000
C      -43.93100000     -33.27330000     -72.90140000
C      -42.81170000     -33.90690000     -72.46360000
C      -44.98180000     -34.32460000     -73.01650000
H      -41.88950000     -33.37840000     -72.15040000
C      -44.55180000     -35.56450000     -72.52220000
C      -46.45650000     -34.41100000     -73.15600000
C      -46.98190000     -35.65220000     -72.95220000
S      -42.91480000     -35.60400000     -72.02600000
S      -45.79290000     -36.76450000     -72.24200000
H      -48.02970000     -35.84910000     -73.05350000
