40
Properties=species:S:1:pos:R:3 #=T CELL(abcABC):=T 1.889726e+02=T 90.00000=T Traj:=T positionsangstrom=T Step:=T 0=T Bead:=T pbc="F F F"
C      -42.64800000     -35.58100000     -68.99010000
C      -43.47590000     -34.52400000     -68.53870000
C      -43.12270000     -33.23890000     -68.92210000
C      -42.16210000     -32.94440000     -69.88160000
C      -41.37910000     -34.01100000     -70.40450000
C      -41.61590000     -35.33240000     -69.91650000
H      -42.66390000     -36.56890000     -68.53090000
H      -43.79730000     -32.51520000     -68.55910000
H      -40.59220000     -33.91260000     -71.11190000
H      -41.09200000     -36.15470000     -70.33750000
C      -41.93590000     -31.50290000     -70.32710000
H      -40.88690000     -31.19700000     -70.16670000
H      -42.53990000     -30.75800000     -69.74610000
C      -44.56360000     -34.83230000     -67.56360000
H      -44.88200000     -35.85370000     -67.73130000
H      -44.19190000     -34.65650000     -66.55100000
S      -42.24730000     -31.33350000     -72.17150000
S      -45.95130000     -33.69390000     -67.80230000
C      -44.06170000     -31.62030000     -72.22140000
H      -44.48500000     -31.05510000     -71.42140000
H      -44.34880000     -31.22360000     -73.15260000
C      -46.52410000     -34.05200000     -69.54590000
H      -47.14180000     -34.91160000     -69.63710000
H      -45.61360000     -34.28240000     -70.12560000
C      -47.22860000     -32.77910000     -70.11490000
H      -48.04780000     -32.51510000     -69.53440000
H      -46.43140000     -31.95390000     -70.18340000
C      -44.51460000     -33.08030000     -72.16780000
H      -44.72860000     -33.22530000     -71.15520000
H      -43.71850000     -33.73390000     -72.47940000
C      -45.74610000     -33.24900000     -73.07980000
C      -45.58520000     -33.48130000     -74.44700000
C      -47.17680000     -33.26560000     -72.74230000
H      -44.58010000     -33.60990000     -74.83350000
C      -48.02350000     -33.57260000     -73.80940000
C      -47.89360000     -33.07610000     -71.49830000
C      -49.23520000     -33.22390000     -71.69900000
S      -47.10660000     -33.83750000     -75.28200000
S      -49.65550000     -33.70820000     -73.29500000
H      -49.96980000     -33.32100000     -70.89880000
