40
Properties=species:S:1:pos:R:3 #=T CELL(abcABC):=T 1.889726e+02=T 90.00000=T Traj:=T positionsangstrom=T Step:=T 0=T Bead:=T pbc="F F F"
C      -43.13270000     -35.09230000     -69.31280000
C      -43.90410000     -34.20060000     -68.49580000
C      -43.67130000     -32.87080000     -68.51760000
C      -42.72080000     -32.35280000     -69.48770000
C      -41.87070000     -33.23680000     -70.16060000
C      -42.03410000     -34.62330000     -70.06000000
H      -43.36100000     -36.13910000     -69.28730000
H      -44.19120000     -32.10820000     -68.02830000
H      -41.08090000     -32.78170000     -70.73650000
H      -41.45870000     -35.25410000     -70.69240000
C      -42.66410000     -30.87760000     -69.71980000
H      -41.70560000     -30.46620000     -69.48460000
H      -43.42200000     -30.43690000     -69.08860000
C      -44.97230000     -34.84960000     -67.58050000
H      -45.17020000     -35.93060000     -67.86690000
H      -44.63390000     -34.78630000     -66.59430000
S      -43.03590000     -30.25940000     -71.49250000
S      -46.49870000     -33.92000000     -67.60070000
C      -44.45540000     -31.32310000     -72.12380000
H      -45.15730000     -31.33240000     -71.34360000
H      -44.73530000     -30.81210000     -73.06120000
C      -47.25350000     -34.27480000     -69.23440000
H      -48.23460000     -33.78750000     -69.04600000
H      -47.55580000     -35.35600000     -69.30680000
C      -46.38890000     -33.83820000     -70.41850000
H      -46.27710000     -32.74190000     -70.37350000
H      -45.36620000     -34.31920000     -70.20640000
C      -44.05390000     -32.68100000     -72.63580000
H      -43.84790000     -33.32980000     -71.78390000
H      -43.15430000     -32.57520000     -73.17720000
C      -45.17080000     -33.29910000     -73.48080000
C      -45.14740000     -33.26350000     -74.84520000
C      -46.40890000     -33.83130000     -73.00720000
H      -44.34510000     -32.85460000     -75.48570000
C      -47.28570000     -34.08080000     -74.04870000
C      -47.02580000     -34.15350000     -71.69940000
C      -48.30460000     -34.67980000     -71.84950000
S      -46.64130000     -33.68490000     -75.60820000
S      -48.85060000     -34.70380000     -73.53370000
H      -49.01340000     -34.67030000     -71.00920000
