40
Properties=species:S:1:pos:R:3 #=T CELL(abcABC):=T 1.889726e+02=T 90.00000=T Traj:=T positionsangstrom=T Step:=T 0=T Bead:=T pbc="F F F"
C      -42.27850000     -35.46850000     -70.82350000
C      -42.08490000     -34.24640000     -71.53150000
C      -42.59090000     -34.07360000     -72.83890000
C      -43.29170000     -35.11260000     -73.45470000
C      -43.53830000     -36.27370000     -72.75630000
C      -43.06620000     -36.43380000     -71.44600000
H      -41.74830000     -35.76630000     -69.89250000
H      -42.56070000     -33.12660000     -73.41830000
H      -44.25100000     -37.01800000     -73.07720000
H      -43.18290000     -37.41850000     -70.97460000
C      -43.70140000     -34.99460000     -74.91420000
H      -44.09980000     -35.94090000     -75.18690000
H      -42.91220000     -34.83790000     -75.63710000
C      -41.33050000     -33.18150000     -70.87460000
H      -40.29140000     -33.50680000     -70.72740000
H      -41.44730000     -32.29310000     -71.48910000
S      -45.13600000     -33.82030000     -75.22150000
S      -41.97830000     -32.91780000     -69.14870000
C      -46.59290000     -34.03130000     -74.00550000
H      -47.23020000     -33.19830000     -74.29550000
H      -47.13320000     -34.95090000     -74.28540000
C      -43.85720000     -33.19540000     -69.39240000
H      -44.32960000     -33.31120000     -68.36430000
H      -43.95290000     -34.09560000     -69.94290000
C      -44.47800000     -32.02940000     -70.09360000
H      -43.98940000     -31.13230000     -69.76640000
H      -44.19780000     -32.04700000     -71.15790000
C      -46.26540000     -34.03620000     -72.51950000
H      -45.42090000     -33.37140000     -72.27880000
H      -46.04830000     -35.05420000     -72.17220000
C      -47.35890000     -33.44730000     -71.57920000
C      -48.72800000     -33.67240000     -71.80190000
C      -47.12250000     -32.62890000     -70.36470000
H      -49.14520000     -34.26430000     -72.59230000
C      -48.31910000     -32.16320000     -69.87950000
C      -45.95570000     -31.84540000     -69.79410000
C      -46.36630000     -31.00040000     -68.77680000
S      -49.78040000     -32.79590000     -70.65250000
S      -48.11810000     -31.04320000     -68.55830000
H      -45.70380000     -30.37810000     -68.19820000
