40
Properties=species:S:1:pos:R:3 #=T CELL(abcABC):=T 1.889726e+02=T 90.00000=T Traj:=T positionsangstrom=T Step:=T 0=T Bead:=T pbc="F F F"
C      -43.02840000     -35.45160000     -69.16620000
C      -43.77790000     -34.43100000     -68.52170000
C      -43.56060000     -33.04920000     -68.77310000
C      -42.48110000     -32.65720000     -69.60650000
C      -41.78640000     -33.69340000     -70.28570000
C      -42.07960000     -35.09630000     -70.09950000
H      -43.24160000     -36.55430000     -69.09940000
H      -44.18870000     -32.33580000     -68.17700000
H      -40.95070000     -33.38890000     -70.93490000
H      -41.43100000     -35.73660000     -70.62120000
C      -42.26670000     -31.09370000     -69.83040000
H      -41.20640000     -30.85880000     -69.66800000
H      -42.90640000     -30.60740000     -69.06460000
C      -44.77940000     -34.82880000     -67.53790000
H      -44.94010000     -35.97170000     -67.58800000
H      -44.43810000     -34.61450000     -66.49690000
S      -42.55980000     -30.53180000     -71.50110000
S      -46.40840000     -33.79720000     -67.61680000
C      -44.35210000     -31.24470000     -71.93760000
H      -44.86370000     -31.26570000     -70.97070000
H      -44.75740000     -30.49020000     -72.64400000
C      -47.15270000     -34.26480000     -69.21780000
H      -48.01010000     -33.57750000     -69.30030000
H      -47.64420000     -35.17700000     -69.04340000
C      -46.27650000     -34.02260000     -70.40140000
H      -45.72620000     -33.02920000     -70.34270000
H      -45.49950000     -34.78860000     -70.48720000
C      -44.16360000     -32.57380000     -72.69530000
H      -43.67450000     -33.33920000     -72.07940000
H      -43.42290000     -32.26660000     -73.50750000
C      -45.41330000     -33.08900000     -73.47790000
C      -45.46340000     -32.84140000     -74.80010000
C      -46.71300000     -33.61630000     -73.05270000
H      -44.56590000     -32.58330000     -75.39600000
C      -47.60870000     -33.82700000     -74.07520000
C      -47.14890000     -34.08800000     -71.70310000
C      -48.46700000     -34.48730000     -71.74360000
S      -46.95860000     -33.30230000     -75.59330000
S      -49.14540000     -34.56990000     -73.43650000
H      -49.13910000     -34.90660000     -70.98260000
