40
Properties=species:S:1:pos:R:3 #=T CELL(abcABC):=T 1.889726e+02=T 90.00000=T Traj:=T positionsangstrom=T Step:=T 0=T Bead:=T pbc="F F F"
C      -42.99890000     -35.51410000     -69.13300000
C      -43.73610000     -34.49510000     -68.50800000
C      -43.50180000     -33.14390000     -68.74150000
C      -42.63490000     -32.64980000     -69.68630000
C      -41.89100000     -33.64820000     -70.37350000
C      -42.07860000     -35.01370000     -70.06330000
H      -43.34630000     -36.53510000     -69.06490000
H      -44.09260000     -32.39520000     -68.26650000
H      -41.25450000     -33.40430000     -71.25590000
H      -41.43420000     -35.71760000     -70.62150000
C      -42.34320000     -31.19980000     -69.94540000
H      -41.36070000     -30.94350000     -69.70940000
H      -42.96740000     -30.55150000     -69.22930000
C      -44.83360000     -34.79130000     -67.51330000
H      -45.03710000     -35.82220000     -67.74250000
H      -44.48040000     -34.76730000     -66.48670000
S      -42.60160000     -30.65330000     -71.70750000
S      -46.33700000     -33.82740000     -67.50290000
C      -44.10620000     -31.38410000     -72.30720000
H      -44.86510000     -31.09510000     -71.57830000
H      -44.46240000     -30.77980000     -73.21470000
C      -47.21860000     -34.26040000     -69.05290000
H      -48.09720000     -33.63340000     -69.16450000
H      -47.43840000     -35.35700000     -69.18540000
C      -46.31610000     -33.96110000     -70.33120000
H      -45.87280000     -33.02120000     -70.21380000
H      -45.48290000     -34.72120000     -70.40950000
C      -44.15350000     -32.86000000     -72.67900000
H      -44.10800000     -33.51030000     -71.79680000
H      -43.22440000     -33.06050000     -73.15970000
C      -45.36250000     -33.15850000     -73.50770000
C      -45.51700000     -32.83570000     -74.82650000
C      -46.57480000     -33.59680000     -72.95170000
H      -44.62800000     -32.41630000     -75.34770000
C      -47.54470000     -33.73470000     -73.93770000
C      -47.06050000     -34.06910000     -71.65780000
C      -48.42350000     -34.39900000     -71.77790000
S      -47.07400000     -33.27450000     -75.48750000
S      -49.12660000     -34.27730000     -73.39250000
H      -48.99110000     -34.85500000     -70.96270000
