40
Properties=species:S:1:pos:R:3 #=T CELL(abcABC):=T 1.889726e+02=T 90.00000=T Traj:=T positionsangstrom=T Step:=T 0=T Bead:=T pbc="F F F"
C      -43.02630000     -35.44930000     -69.17050000
C      -43.65890000     -34.45300000     -68.47950000
C      -43.43940000     -33.08360000     -68.70970000
C      -42.62560000     -32.62860000     -69.72800000
C      -41.85990000     -33.66830000     -70.35190000
C      -42.01700000     -35.04910000     -70.11130000
H      -43.01610000     -36.44680000     -68.75580000
H      -43.99300000     -32.42920000     -68.12370000
H      -41.13240000     -33.36490000     -71.09060000
H      -41.44200000     -35.73880000     -70.79910000
C      -42.50280000     -31.18240000     -70.06000000
H      -41.52050000     -30.78260000     -69.65320000
H      -43.35670000     -30.56240000     -69.80150000
C      -44.72510000     -34.95350000     -67.49120000
H      -45.10040000     -35.98910000     -67.59360000
H      -44.34250000     -34.81670000     -66.46210000
S      -42.37210000     -30.80980000     -71.89720000
S      -46.31650000     -33.91580000     -67.47660000
C      -44.06110000     -31.31200000     -72.44630000
H      -44.76920000     -31.06200000     -71.62150000
H      -44.36640000     -30.81620000     -73.34440000
C      -47.09620000     -34.37960000     -69.07680000
H      -48.04430000     -33.90440000     -68.98870000
H      -47.28910000     -35.47280000     -69.09490000
C      -46.29610000     -33.90540000     -70.37540000
H      -45.84290000     -32.91250000     -70.25680000
H      -45.41520000     -34.59590000     -70.51110000
C      -44.13290000     -32.81970000     -72.70710000
H      -44.19190000     -33.44000000     -71.74800000
H      -43.17980000     -33.09960000     -73.29550000
C      -45.42470000     -33.12920000     -73.46820000
C      -45.49030000     -33.10780000     -74.84310000
C      -46.68380000     -33.58050000     -72.93820000
H      -44.67140000     -32.75550000     -75.42940000
C      -47.68810000     -33.69880000     -73.90250000
C      -47.19540000     -33.87790000     -71.59030000
C      -48.55540000     -34.27850000     -71.64220000
S      -47.11380000     -33.19180000     -75.44930000
S      -49.28060000     -34.16680000     -73.23250000
H      -49.07340000     -34.63150000     -70.77970000
