40
Properties=species:S:1:pos:R:3 #=T CELL(abcABC):=T 1.889726e+02=T 90.00000=T Traj:=T positionsangstrom=T Step:=T 0=T Bead:=T pbc="F F F"
C      -42.79800000     -34.98860000     -68.93730000
C      -43.79490000     -34.16970000     -68.36120000
C      -43.82100000     -32.77380000     -68.62810000
C      -42.74070000     -32.26340000     -69.37840000
C      -41.66220000     -33.02950000     -69.84270000
C      -41.74180000     -34.44640000     -69.64970000
H      -42.90530000     -36.13540000     -68.87570000
H      -44.65360000     -32.12850000     -68.20850000
H      -40.89490000     -32.59400000     -70.44780000
H      -40.90770000     -35.13680000     -69.87060000
C      -42.90820000     -30.71820000     -69.74020000
H      -42.21090000     -30.06760000     -69.24890000
H      -43.84010000     -30.36980000     -69.36660000
C      -44.95590000     -34.79710000     -67.56050000
H      -45.02120000     -35.80930000     -67.80260000
H      -44.70670000     -34.85860000     -66.47470000
S      -42.95760000     -30.34890000     -71.63200000
S      -46.57620000     -34.01760000     -67.68730000
C      -44.54370000     -31.34430000     -71.96310000
H      -45.28080000     -31.32240000     -71.13190000
H      -44.94310000     -30.81140000     -72.80320000
C      -47.18350000     -34.46870000     -69.33860000
H      -48.23110000     -34.12550000     -69.40020000
H      -47.26930000     -35.60720000     -69.35730000
C      -46.49580000     -33.89260000     -70.50480000
H      -46.19830000     -32.78370000     -70.24700000
H      -45.51100000     -34.41670000     -70.70660000
C      -44.20690000     -32.79130000     -72.53620000
H      -44.09200000     -33.40440000     -71.65920000
H      -43.28430000     -32.77360000     -73.15790000
C      -45.24360000     -33.34870000     -73.43470000
C      -44.98940000     -33.53410000     -74.77620000
C      -46.55890000     -33.69170000     -73.10670000
H      -44.09710000     -33.25890000     -75.25140000
C      -47.39860000     -34.05850000     -74.17760000
C      -47.21210000     -33.96330000     -71.84410000
C      -48.47720000     -34.42360000     -71.91450000
S      -46.47450000     -33.90930000     -75.67190000
S      -48.90500000     -34.57830000     -73.65810000
H      -49.08080000     -34.81700000     -71.10130000
