40
Properties=species:S:1:pos:R:3 #=T CELL(abcABC):=T 1.889726e+02=T 90.00000=T Traj:=T positionsangstrom=T Step:=T 0=T Bead:=T pbc="F F F"
C      -48.06290000     -30.79000000     -70.79150000
C      -48.20310000     -31.52700000     -71.94060000
C      -48.46470000     -32.91800000     -71.95040000
C      -48.62090000     -33.49710000     -70.75100000
C      -48.43440000     -32.79390000     -69.53240000
C      -48.13000000     -31.41260000     -69.50990000
H      -47.85350000     -29.69290000     -71.02630000
H      -48.39570000     -33.52010000     -72.90270000
H      -48.46080000     -33.47650000     -68.68000000
H      -47.97500000     -30.93650000     -68.57270000
C      -49.12070000     -34.93500000     -70.55070000
H      -49.77730000     -35.32250000     -71.33090000
H      -49.68260000     -34.91080000     -69.57830000
C      -47.97270000     -30.85300000     -73.35740000
H      -48.83310000     -30.95730000     -74.07290000
H      -47.84360000     -29.79150000     -73.13230000
S      -47.80220000     -36.30790000     -70.24760000
S      -46.57450000     -31.47040000     -74.34350000
C      -46.06800000     -35.81540000     -70.94900000
H      -45.38390000     -36.64480000     -70.78340000
H      -46.19840000     -35.74120000     -72.01810000
C      -45.14430000     -31.61890000     -73.14020000
H      -45.34760000     -31.41180000     -72.07580000
H      -44.34800000     -30.89890000     -73.38850000
C      -44.51280000     -33.11660000     -73.31760000
H      -45.19890000     -33.90900000     -72.95290000
H      -44.38880000     -33.23240000     -74.40010000
C      -45.51980000     -34.43390000     -70.25100000
H      -45.96810000     -34.44040000     -69.22040000
H      -45.91660000     -33.63160000     -70.82450000
C      -44.07770000     -34.26300000     -70.13980000
C      -43.40750000     -34.53940000     -68.91680000
C      -43.13960000     -33.87770000     -71.16620000
H      -44.00200000     -35.05110000     -68.11790000
C      -41.81050000     -33.91500000     -70.69140000
C      -43.20570000     -33.24330000     -72.51920000
C      -41.99250000     -32.83120000     -72.94710000
S      -41.61110000     -34.40840000     -69.09190000
S      -40.66880000     -33.17880000     -71.75960000
H      -41.96660000     -32.29440000     -73.88980000
