40
Properties=species:S:1:pos:R:3 #=T CELL(abcABC):=T 1.889726e+02=T 90.00000=T Traj:=T positionsangstrom=T Step:=T 0=T Bead:=T pbc="F F F"
C      -42.53430000     -34.76330000     -68.53170000
C      -43.79680000     -34.12400000     -68.35900000
C      -43.99180000     -32.76180000     -68.79370000
C      -42.91990000     -32.11400000     -69.42720000
C      -41.68130000     -32.72490000     -69.59630000
C      -41.49490000     -34.01790000     -69.15520000
H      -42.41150000     -35.76990000     -68.28570000
H      -44.93320000     -32.22150000     -68.57490000
H      -40.78680000     -32.15120000     -69.88810000
H      -40.47100000     -34.40170000     -69.11130000
C      -43.13910000     -30.66620000     -69.86680000
H      -42.39170000     -29.99470000     -69.34120000
H      -44.14360000     -30.33860000     -69.60470000
C      -44.82820000     -34.90370000     -67.58730000
H      -44.89990000     -35.91310000     -67.88060000
H      -44.50480000     -34.96100000     -66.47700000
S      -42.93910000     -30.47110000     -71.64740000
S      -46.51950000     -34.08470000     -67.65970000
C      -44.39040000     -31.22070000     -72.43480000
H      -45.21050000     -30.91170000     -71.79580000
H      -44.48560000     -30.71740000     -73.40440000
C      -47.21780000     -34.47200000     -69.29980000
H      -48.27940000     -34.47900000     -69.20700000
H      -47.06190000     -35.49670000     -69.63950000
C      -46.75470000     -33.56070000     -70.49900000
H      -47.00210000     -32.50950000     -70.27350000
H      -45.63520000     -33.51530000     -70.44560000
C      -44.24060000     -32.70380000     -72.58870000
H      -44.26880000     -33.21880000     -71.62600000
H      -43.31570000     -32.86580000     -73.04070000
C      -45.28270000     -33.18860000     -73.50880000
C      -45.12470000     -33.34710000     -74.90400000
C      -46.57350000     -33.73360000     -73.06160000
H      -44.24980000     -32.94200000     -75.48100000
C      -47.28100000     -34.16900000     -74.15470000
C      -47.24290000     -33.99540000     -71.78620000
C      -48.47770000     -34.54590000     -71.99640000
S      -46.53050000     -34.01830000     -75.68920000
S      -48.82900000     -35.01710000     -73.70160000
H      -49.24270000     -34.71020000     -71.20210000
