40
Properties=species:S:1:pos:R:3 #=T CELL(abcABC):=T 1.889726e+02=T 90.00000=T Traj:=T positionsangstrom=T Step:=T 0=T Bead:=T pbc="F F F"
C      -42.62930000     -34.85810000     -68.70150000
C      -43.82960000     -34.14290000     -68.37460000
C      -43.93260000     -32.70950000     -68.70560000
C      -42.93560000     -32.09190000     -69.43770000
C      -41.66860000     -32.75590000     -69.62570000
C      -41.55620000     -34.06020000     -69.30050000
H      -42.45170000     -35.86620000     -68.38220000
H      -44.82250000     -32.24640000     -68.41840000
H      -40.76480000     -32.24650000     -70.12910000
H      -40.70610000     -34.57990000     -69.65940000
C      -43.17620000     -30.64260000     -69.77900000
H      -42.48560000     -30.01700000     -69.24220000
H      -44.15080000     -30.22520000     -69.41440000
C      -44.98380000     -34.93300000     -67.69360000
H      -45.05280000     -35.89850000     -68.21680000
H      -44.70670000     -35.07360000     -66.71190000
S      -42.83660000     -30.39910000     -71.57180000
S      -46.57150000     -34.12650000     -67.66330000
C      -44.30940000     -31.30290000     -72.18090000
H      -45.09300000     -31.26470000     -71.40870000
H      -44.81640000     -30.82310000     -73.02650000
C      -47.15350000     -34.50810000     -69.35020000
H      -48.22670000     -34.33860000     -69.28440000
H      -46.80740000     -35.53100000     -69.49990000
C      -46.61740000     -33.59980000     -70.45990000
H      -46.68690000     -32.51180000     -70.37820000
H      -45.53920000     -33.72220000     -70.61820000
C      -44.09370000     -32.76910000     -72.63950000
H      -43.84680000     -33.44350000     -71.72890000
H      -43.13280000     -32.82940000     -73.22160000
C      -45.25120000     -33.27210000     -73.50690000
C      -45.10590000     -33.39040000     -74.89420000
C      -46.59520000     -33.78860000     -73.09280000
H      -44.16730000     -33.19660000     -75.48430000
C      -47.29570000     -34.20180000     -74.18600000
C      -47.27540000     -33.96850000     -71.81030000
C      -48.52880000     -34.47520000     -71.97090000
S      -46.54840000     -34.05030000     -75.68530000
S      -48.89190000     -34.79410000     -73.69110000
H      -49.27820000     -34.88040000     -71.31480000
