40
Properties=species:S:1:pos:R:3 #=T CELL(abcABC):=T 1.889726e+02=T 90.00000=T Traj:=T positionsangstrom=T Step:=T 0=T Bead:=T pbc="F F F"
C      -48.26680000     -30.81410000     -70.80920000
C      -48.20320000     -31.50760000     -72.00510000
C      -48.32410000     -32.91480000     -72.02620000
C      -48.60720000     -33.56670000     -70.83660000
C      -48.55630000     -32.92590000     -69.61590000
C      -48.40960000     -31.45430000     -69.56530000
H      -48.06490000     -29.65640000     -70.81810000
H      -48.21430000     -33.39300000     -73.00090000
H      -48.70430000     -33.46720000     -68.72440000
H      -48.36140000     -30.91140000     -68.58690000
C      -48.86570000     -35.09670000     -70.81930000
H      -48.97930000     -35.46100000     -71.88150000
H      -49.76160000     -35.23080000     -70.19640000
C      -47.98520000     -30.83230000     -73.29370000
H      -48.91940000     -31.01260000     -73.79750000
H      -47.85310000     -29.71580000     -73.20780000
S      -47.52680000     -36.33210000     -70.33640000
S      -46.52760000     -31.54110000     -74.26940000
C      -46.03300000     -35.45860000     -71.16620000
H      -45.32700000     -36.28900000     -71.19400000
H      -46.42980000     -35.11290000     -72.14210000
C      -45.26120000     -31.62780000     -72.98750000
H      -45.69830000     -31.62810000     -71.98690000
H      -44.58810000     -30.76470000     -72.96590000
C      -44.47680000     -32.98220000     -73.30320000
H      -45.17940000     -33.84660000     -73.13430000
H      -44.13960000     -33.03660000     -74.33050000
C      -45.54110000     -34.30800000     -70.31140000
H      -46.12740000     -34.31320000     -69.39480000
H      -45.85930000     -33.32280000     -70.71210000
C      -44.06080000     -34.27120000     -70.12000000
C      -43.43340000     -34.80170000     -68.97650000
C      -43.13620000     -33.74390000     -71.01150000
H      -43.95070000     -35.20850000     -68.06560000
C      -41.82980000     -33.68930000     -70.51730000
C      -43.18240000     -33.23770000     -72.41300000
C      -41.98690000     -32.89920000     -72.92860000
S      -41.79530000     -34.40560000     -68.89000000
S      -40.68940000     -33.21630000     -71.80670000
H      -41.87850000     -32.33810000     -73.88700000
