40
Properties=species:S:1:pos:R:3 #=T CELL(abcABC):=T 1.889726e+02=T 90.00000=T Traj:=T positionsangstrom=T Step:=T 0=T Bead:=T pbc="F F F"
C      -42.73040000     -34.68240000     -68.66920000
C      -43.84380000     -33.87850000     -68.27630000
C      -43.86440000     -32.54050000     -68.58600000
C      -42.79690000     -31.95550000     -69.40190000
C      -41.69570000     -32.73950000     -69.77910000
C      -41.71050000     -34.16330000     -69.45740000
H      -42.75340000     -35.77440000     -68.43340000
H      -44.50720000     -31.85790000     -68.13650000
H      -40.80390000     -32.19430000     -70.20770000
H      -40.88890000     -34.76350000     -69.76020000
C      -43.05300000     -30.51750000     -69.76850000
H      -42.32200000     -29.84410000     -69.33520000
H      -44.16520000     -30.27500000     -69.40730000
C      -44.80420000     -34.51850000     -67.30890000
H      -44.71690000     -35.66560000     -67.26610000
H      -44.56200000     -34.17010000     -66.25560000
S      -42.94460000     -30.32370000     -71.62010000
S      -46.64130000     -34.10660000     -67.58740000
C      -44.34270000     -31.35100000     -72.28730000
H      -45.19190000     -31.22120000     -71.59290000
H      -44.55010000     -30.73890000     -73.20770000
C      -47.01250000     -34.61410000     -69.36970000
H      -48.01610000     -34.95510000     -69.39780000
H      -46.39620000     -35.46190000     -69.48920000
C      -46.83390000     -33.56720000     -70.45100000
H      -47.43530000     -32.67600000     -70.39300000
H      -45.84700000     -33.13730000     -70.57800000
C      -44.12630000     -32.84830000     -72.68830000
H      -43.98870000     -33.41300000     -71.78160000
H      -43.12160000     -32.91120000     -73.15080000
C      -45.25630000     -33.34260000     -73.57790000
C      -45.16510000     -33.38920000     -74.94040000
C      -46.55140000     -33.82390000     -73.13080000
H      -44.34610000     -33.06190000     -75.52170000
C      -47.30800000     -34.33100000     -74.14730000
C      -47.20220000     -34.11970000     -71.85850000
C      -48.40520000     -34.70900000     -72.00260000
S      -46.57070000     -34.12510000     -75.69010000
S      -48.78360000     -35.00730000     -73.74760000
H      -49.01740000     -34.96370000     -71.24940000
