40
Properties=species:S:1:pos:R:3 #=T CELL(abcABC):=T 1.889726e+02=T 90.00000=T Traj:=T positionsangstrom=T Step:=T 0=T Bead:=T pbc="F F F"
C      -42.66170000     -34.66140000     -68.57530000
C      -43.80300000     -34.00030000     -68.20720000
C      -43.95170000     -32.62480000     -68.64330000
C      -42.92880000     -31.98490000     -69.34730000
C      -41.69140000     -32.65930000     -69.64180000
C      -41.59410000     -33.99680000     -69.19160000
H      -42.46090000     -35.72490000     -68.32880000
H      -44.95300000     -32.28600000     -68.51830000
H      -40.97240000     -32.04750000     -70.15510000
H      -40.69750000     -34.61450000     -69.44860000
C      -42.96090000     -30.58840000     -69.89240000
H      -42.16940000     -30.02400000     -69.50250000
H      -43.77840000     -29.97650000     -69.52450000
C      -44.94620000     -34.71950000     -67.42670000
H      -44.82800000     -35.74540000     -67.72840000
H      -44.75410000     -34.64360000     -66.46240000
S      -42.78500000     -30.50960000     -71.70500000
S      -46.59570000     -34.03480000     -67.65970000
C      -44.43850000     -31.15880000     -72.29670000
H      -45.20030000     -31.02110000     -71.56030000
H      -44.78160000     -30.57870000     -73.15100000
C      -47.07430000     -34.63750000     -69.36760000
H      -48.21420000     -34.74020000     -69.43720000
H      -46.60320000     -35.61590000     -69.53350000
C      -46.71540000     -33.64860000     -70.57050000
H      -47.13450000     -32.69100000     -70.15500000
H      -45.64030000     -33.50790000     -70.51510000
C      -44.30220000     -32.61580000     -72.62550000
H      -44.07600000     -33.21890000     -71.78730000
H      -43.41720000     -32.71710000     -73.28900000
C      -45.33730000     -33.22810000     -73.50740000
C      -45.15840000     -33.37980000     -74.88710000
C      -46.58530000     -33.81890000     -73.10580000
H      -44.33480000     -33.01060000     -75.42480000
C      -47.33670000     -34.33260000     -74.18280000
C      -47.27290000     -34.03440000     -71.87710000
C      -48.53760000     -34.53960000     -72.06160000
S      -46.49460000     -34.13630000     -75.68810000
S      -48.82780000     -35.05490000     -73.68240000
H      -49.07620000     -34.92510000     -71.27950000
