40
Properties=species:S:1:pos:R:3 #=T CELL(abcABC):=T 1.889726e+02=T 90.00000=T Traj:=T positionsangstrom=T Step:=T 0=T Bead:=T pbc="F F F"
C      -42.69190000     -34.76870000     -69.02490000
C      -43.76590000     -34.01390000     -68.47710000
C      -43.77210000     -32.64250000     -68.69450000
C      -42.75280000     -32.05870000     -69.51600000
C      -41.74220000     -32.84940000     -70.09410000
C      -41.65490000     -34.22110000     -69.80090000
H      -42.75040000     -35.91000000     -68.85720000
H      -44.52320000     -32.05510000     -68.25670000
H      -40.88870000     -32.28950000     -70.47880000
H      -40.91370000     -34.94070000     -70.19100000
C      -42.74340000     -30.52920000     -69.59100000
H      -41.77430000     -30.05860000     -69.41720000
H      -43.39280000     -30.05650000     -68.89270000
C      -44.79830000     -34.93200000     -67.78020000
H      -44.87610000     -35.89840000     -68.21600000
H      -44.49500000     -35.16110000     -66.71350000
S      -43.25310000     -30.05230000     -71.41350000
S      -46.44860000     -34.13050000     -67.56290000
C      -44.68190000     -31.07230000     -71.83760000
H      -45.07570000     -31.40640000     -70.88510000
H      -45.34100000     -30.39200000     -72.32980000
C      -47.13980000     -34.61110000     -69.23120000
H      -48.20570000     -34.41470000     -69.31520000
H      -47.01290000     -35.77750000     -69.20590000
C      -46.44630000     -33.87420000     -70.38390000
H      -46.67890000     -32.79950000     -70.33610000
H      -45.35780000     -33.89850000     -70.41930000
C      -44.38730000     -32.33850000     -72.87260000
H      -43.81780000     -33.11790000     -72.34550000
H      -43.70350000     -31.85880000     -73.58290000
C      -45.57650000     -32.84140000     -73.58260000
C      -45.67570000     -32.64460000     -74.94760000
C      -46.54470000     -33.80500000     -73.08500000
H      -45.14700000     -31.90850000     -75.61780000
C      -47.39090000     -34.27140000     -74.07520000
C      -46.94830000     -34.41300000     -71.76200000
C      -47.86940000     -35.43390000     -71.93670000
S      -47.03580000     -33.58050000     -75.62690000
S      -48.25850000     -35.68360000     -73.63540000
H      -48.32700000     -36.09080000     -71.21900000
