40
Properties=species:S:1:pos:R:3 #=T CELL(abcABC):=T 1.889726e+02=T 90.00000=T Traj:=T positionsangstrom=T Step:=T 0=T Bead:=T pbc="F F F"
C      -46.15060000     -30.88820000     -68.86040000
C      -46.43940000     -31.95880000     -69.71330000
C      -45.72520000     -33.15630000     -69.53060000
C      -44.73820000     -33.29530000     -68.56760000
C      -44.39450000     -32.22780000     -67.71110000
C      -45.18200000     -31.02530000     -67.85540000
H      -46.69720000     -29.98490000     -68.80610000
H      -45.98790000     -33.95200000     -70.32170000
H      -43.65040000     -32.30200000     -66.92830000
H      -44.71290000     -30.17070000     -67.38940000
C      -43.84210000     -34.54320000     -68.66010000
H      -44.47670000     -35.35530000     -68.93790000
H      -43.53120000     -34.79780000     -67.68700000
C      -47.49620000     -31.83440000     -70.76520000
H      -47.60160000     -32.72980000     -71.40550000
H      -48.37980000     -31.80380000     -70.29860000
S      -42.27460000     -34.14640000     -69.58410000
S      -47.12260000     -30.45940000     -71.96690000
C      -42.55870000     -32.94360000     -70.89980000
H      -43.52320000     -32.38150000     -70.65540000
H      -41.78960000     -32.15310000     -70.93390000
C      -45.46830000     -30.86120000     -72.54600000
H      -44.79610000     -31.25630000     -71.78980000
H      -45.07280000     -29.80340000     -72.92540000
C      -45.52210000     -31.76060000     -73.77600000
H      -46.13600000     -31.28390000     -74.52860000
H      -44.50460000     -31.79540000     -74.33000000
C      -42.75130000     -33.48960000     -72.30160000
H      -41.90540000     -34.06830000     -72.69500000
H      -42.93890000     -32.68920000     -72.99780000
C      -43.94400000     -34.42410000     -72.46770000
C      -43.81590000     -35.75820000     -72.00420000
C      -45.37410000     -34.22030000     -72.86890000
H      -42.92070000     -36.09390000     -71.52090000
C      -46.14450000     -35.36090000     -72.76370000
C      -46.07990000     -33.14870000     -73.55820000
C      -47.34680000     -33.46370000     -73.95430000
S      -45.34090000     -36.66690000     -72.06890000
S      -47.72510000     -35.17870000     -73.44110000
H      -48.07620000     -32.77330000     -74.43610000
