40
Properties=species:S:1:pos:R:3 #=T CELL(abcABC):=T 1.889726e+02=T 90.00000=T Traj:=T positionsangstrom=T Step:=T 0=T Bead:=T pbc="F F F"
C      -42.90850000     -34.87020000     -69.08960000
C      -43.78720000     -34.07000000     -68.37930000
C      -43.67030000     -32.62720000     -68.51150000
C      -42.91390000     -32.10990000     -69.54280000
C      -42.04840000     -32.91850000     -70.29870000
C      -42.05120000     -34.30950000     -70.06830000
H      -43.01950000     -35.94870000     -69.07860000
H      -44.31350000     -31.96490000     -67.85510000
H      -41.66060000     -32.40800000     -71.13940000
H      -41.37200000     -34.99330000     -70.55230000
C      -42.91450000     -30.62830000     -69.73080000
H      -41.95230000     -30.17340000     -69.53670000
H      -43.65310000     -30.12640000     -69.10050000
C      -44.84340000     -34.71410000     -67.48870000
H      -44.91330000     -35.82940000     -67.76620000
H      -44.50350000     -34.75610000     -66.49140000
S      -43.33220000     -30.03330000     -71.48610000
S      -46.48380000     -33.82160000     -67.58120000
C      -44.83310000     -30.82900000     -72.16530000
H      -45.58440000     -30.90110000     -71.35930000
H      -45.27320000     -30.22010000     -72.98170000
C      -47.00160000     -34.36370000     -69.31030000
H      -47.89420000     -33.67590000     -69.50360000
H      -47.09280000     -35.43190000     -69.20410000
C      -46.02150000     -34.13580000     -70.43900000
H      -45.79270000     -33.05870000     -70.44230000
H      -45.15260000     -34.76290000     -70.25180000
C      -44.47150000     -32.21500000     -72.64990000
H      -44.27410000     -32.82660000     -71.75730000
H      -43.55660000     -32.09880000     -73.22930000
C      -45.46940000     -32.94740000     -73.52580000
C      -45.51390000     -32.80010000     -74.91440000
C      -46.48100000     -33.90570000     -73.05310000
H      -44.89010000     -32.27200000     -75.52870000
C      -47.28210000     -34.40840000     -74.10810000
C      -46.77420000     -34.49030000     -71.73910000
C      -47.73770000     -35.46660000     -71.84020000
S      -46.79440000     -33.74980000     -75.62260000
S      -48.30910000     -35.67360000     -73.46850000
H      -48.13320000     -36.13090000     -71.13020000
