40
Properties=species:S:1:pos:R:3 #=T CELL(abcABC):=T 1.889726e+02=T 90.00000=T Traj:=T positionsangstrom=T Step:=T 0=T Bead:=T pbc="F F F"
C      -42.47060000     -34.81960000     -68.72550000
C      -43.61090000     -34.10960000     -68.23020000
C      -43.67930000     -32.76510000     -68.58780000
C      -42.72460000     -32.07590000     -69.32990000
C      -41.55220000     -32.76540000     -69.67700000
C      -41.42140000     -34.14200000     -69.32850000
H      -42.32160000     -35.71010000     -68.29200000
H      -44.51960000     -32.12860000     -68.17590000
H      -40.67920000     -32.31220000     -70.19380000
H      -40.52390000     -34.63690000     -69.59820000
C      -43.05790000     -30.62600000     -69.55890000
H      -42.20360000     -29.94320000     -69.23350000
H      -43.91570000     -30.27560000     -68.94680000
C      -44.70240000     -34.89510000     -67.57940000
H      -44.55040000     -35.97090000     -67.77120000
H      -44.63860000     -34.78270000     -66.47760000
S      -43.41250000     -30.02310000     -71.33440000
S      -46.41290000     -34.37900000     -67.82840000
C      -44.89990000     -31.02600000     -72.02070000
H      -45.62850000     -31.13240000     -71.16550000
H      -45.19850000     -30.24950000     -72.75160000
C      -46.97500000     -34.95330000     -69.44380000
H      -48.09100000     -34.77330000     -69.48350000
H      -46.89910000     -36.02850000     -69.62210000
C      -46.24070000     -34.30060000     -70.66120000
H      -46.14410000     -33.25000000     -70.39820000
H      -45.23190000     -34.63450000     -70.75530000
C      -44.48290000     -32.35560000     -72.51590000
H      -44.36780000     -33.04120000     -71.75790000
H      -43.48300000     -32.28120000     -72.97140000
C      -45.48610000     -32.96940000     -73.50680000
C      -45.35740000     -32.83730000     -74.87370000
C      -46.62400000     -33.79010000     -73.13690000
H      -44.57370000     -32.28140000     -75.28740000
C      -47.38420000     -34.14650000     -74.27260000
C      -47.02510000     -34.51020000     -71.95600000
C      -48.14390000     -35.25770000     -72.18350000
S      -46.74910000     -33.43480000     -75.75640000
S      -48.71840000     -35.18500000     -73.79230000
H      -48.72920000     -35.91400000     -71.51780000
