40
Properties=species:S:1:pos:R:3 #=T CELL(abcABC):=T 1.889726e+02=T 90.00000=T Traj:=T positionsangstrom=T Step:=T 0=T Bead:=T pbc="F F F"
C      -42.82470000     -34.88060000     -69.22340000
C      -43.78520000     -34.13630000     -68.52120000
C      -43.75730000     -32.71780000     -68.65950000
C      -42.84470000     -32.06440000     -69.46820000
C      -41.83950000     -32.77230000     -70.10720000
C      -41.83380000     -34.21110000     -69.95270000
H      -42.75300000     -36.00680000     -68.95290000
H      -44.58550000     -32.18930000     -68.15610000
H      -41.12820000     -32.15860000     -70.71480000
H      -41.18980000     -34.88090000     -70.51500000
C      -43.00030000     -30.60880000     -69.66010000
H      -42.07790000     -30.12370000     -69.28220000
H      -43.85830000     -30.28790000     -69.07990000
C      -44.76970000     -34.69970000     -67.50190000
H      -44.90980000     -35.76620000     -67.70790000
H      -44.45750000     -34.54930000     -66.46690000
S      -43.16990000     -30.03240000     -71.36590000
S      -46.40090000     -33.91490000     -67.62960000
C      -44.79350000     -30.96270000     -71.87230000
H      -45.16420000     -31.38490000     -70.91790000
H      -45.61620000     -30.31890000     -72.19870000
C      -47.14250000     -34.45480000     -69.18250000
H      -48.15540000     -33.99270000     -69.21410000
H      -47.40960000     -35.47300000     -69.07340000
C      -46.33420000     -34.13210000     -70.42170000
H      -46.08670000     -33.09540000     -70.35060000
H      -45.30440000     -34.56400000     -70.31680000
C      -44.51240000     -32.13690000     -72.80860000
H      -43.98350000     -32.89160000     -72.28480000
H      -43.76890000     -31.83890000     -73.57850000
C      -45.57300000     -32.84060000     -73.56640000
C      -45.81410000     -32.59060000     -74.92000000
C      -46.41820000     -33.88200000     -73.05500000
H      -45.31040000     -31.91720000     -75.61570000
C      -47.20300000     -34.42880000     -74.07940000
C      -46.80610000     -34.50550000     -71.78450000
C      -47.78530000     -35.47250000     -71.88800000
S      -46.87890000     -33.74120000     -75.68790000
S      -48.31920000     -35.71300000     -73.58630000
H      -48.32480000     -35.93800000     -71.11140000
