40
Properties=species:S:1:pos:R:3 #=T CELL(abcABC):=T 1.889726e+02=T 90.00000=T Traj:=T positionsangstrom=T Step:=T 0=T Bead:=T pbc="F F F"
C      -48.32010000     -31.02840000     -70.75360000
C      -48.18710000     -31.61010000     -71.97200000
C      -48.44110000     -32.97870000     -72.11910000
C      -48.79320000     -33.76430000     -71.01060000
C      -48.98010000     -33.12090000     -69.72690000
C      -48.71290000     -31.75450000     -69.60200000
H      -48.16090000     -29.95170000     -70.69360000
H      -48.33160000     -33.41570000     -73.07340000
H      -49.22720000     -33.73030000     -68.88380000
H      -48.73580000     -31.11520000     -68.68420000
C      -48.91770000     -35.27780000     -71.21840000
H      -49.02210000     -35.50700000     -72.25970000
H      -49.79300000     -35.67470000     -70.74660000
C      -47.84480000     -30.79530000     -73.20130000
H      -48.76310000     -30.68440000     -73.73620000
H      -47.54150000     -29.75800000     -72.96620000
S      -47.53780000     -36.25510000     -70.54270000
S      -46.53870000     -31.51540000     -74.21090000
C      -45.99500000     -35.42940000     -71.00230000
H      -45.20890000     -36.14310000     -70.99840000
H      -45.97460000     -35.16120000     -72.06420000
C      -45.18330000     -31.68340000     -72.93450000
H      -45.65400000     -31.72260000     -71.95230000
H      -44.52790000     -30.83480000     -73.08120000
C      -44.30180000     -32.97710000     -73.24960000
H      -45.01970000     -33.75940000     -73.14800000
H      -44.00210000     -32.90960000     -74.30360000
C      -45.57120000     -34.12850000     -70.28690000
H      -45.97190000     -34.06980000     -69.32110000
H      -45.98970000     -33.26840000     -70.91370000
C      -44.10870000     -34.02580000     -70.05500000
C      -43.53790000     -34.41880000     -68.85440000
C      -43.11250000     -33.72550000     -71.02360000
H      -44.08020000     -34.66900000     -67.99600000
C      -41.79960000     -33.71740000     -70.51410000
C      -43.04370000     -33.17090000     -72.41850000
C      -41.81630000     -32.79240000     -72.79630000
S      -41.72910000     -34.45540000     -68.91210000
S      -40.55970000     -33.16260000     -71.60310000
H      -41.52000000     -32.54240000     -73.89180000
