40
Properties=species:S:1:pos:R:3 #=T CELL(abcABC):=T 1.889726e+02=T 90.00000=T Traj:=T positionsangstrom=T Step:=T 0=T Bead:=T pbc="F F F"
C      -42.58740000     -34.58330000     -68.96090000
C      -43.71920000     -34.05560000     -68.30050000
C      -44.04980000     -32.66870000     -68.43320000
C      -43.10000000     -31.76150000     -68.98330000
C      -41.91840000     -32.33720000     -69.52110000
C      -41.63880000     -33.71130000     -69.60980000
H      -42.31510000     -35.68050000     -68.83250000
H      -45.00760000     -32.37460000     -68.13680000
H      -41.06780000     -31.62010000     -69.81690000
H      -40.73260000     -34.21950000     -69.90920000
C      -43.51350000     -30.42390000     -69.37470000
H      -42.84990000     -29.57110000     -69.07890000
H      -44.58450000     -30.43990000     -69.01560000
C      -44.58790000     -35.00300000     -67.55050000
H      -44.27740000     -36.03570000     -67.71450000
H      -44.36200000     -34.83060000     -66.47910000
S      -43.38350000     -30.21470000     -71.25740000
S      -46.38040000     -34.60030000     -67.78400000
C      -44.70480000     -31.28310000     -72.03310000
H      -45.63450000     -31.30050000     -71.40830000
H      -45.05720000     -30.66820000     -72.91280000
C      -46.84250000     -35.18800000     -69.42000000
H      -47.88410000     -34.89820000     -69.37640000
H      -46.79230000     -36.31830000     -69.31260000
C      -46.12870000     -34.64820000     -70.72150000
H      -45.71790000     -33.69790000     -70.44490000
H      -45.30700000     -35.32640000     -70.85990000
C      -44.21920000     -32.65600000     -72.51820000
H      -44.05550000     -33.42090000     -71.77250000
H      -43.26510000     -32.53240000     -73.03360000
C      -45.28220000     -33.14210000     -73.50590000
C      -45.20660000     -32.84640000     -74.82400000
C      -46.45410000     -33.89800000     -73.20830000
H      -44.36560000     -32.37040000     -75.29520000
C      -47.30790000     -34.03050000     -74.29140000
C      -46.93290000     -34.53080000     -72.03600000
C      -48.15550000     -35.12450000     -72.27830000
S      -46.63400000     -33.31840000     -75.73790000
S      -48.69810000     -35.00150000     -73.92130000
H      -48.60060000     -35.84870000     -71.56190000
