40
Properties=species:S:1:pos:R:3 #=T CELL(abcABC):=T 1.889726e+02=T 90.00000=T Traj:=T positionsangstrom=T Step:=T 0=T Bead:=T pbc="F F F"
C      -42.91030000     -34.82570000     -69.48710000
C      -43.84190000     -34.34730000     -68.52870000
C      -43.79630000     -32.91470000     -68.41510000
C      -43.07630000     -32.01680000     -69.16070000
C      -42.07960000     -32.55090000     -70.01110000
C      -42.08330000     -33.94940000     -70.25210000
H      -42.85870000     -35.82930000     -69.71700000
H      -44.66750000     -32.53120000     -67.80290000
H      -41.28100000     -31.97060000     -70.53600000
H      -41.36660000     -34.41000000     -70.91420000
C      -43.45460000     -30.60930000     -69.09890000
H      -42.72500000     -29.95500000     -68.53730000
H      -44.37990000     -30.51920000     -68.53850000
C      -44.66630000     -35.17520000     -67.58450000
H      -44.50600000     -36.26570000     -67.63970000
H      -44.58460000     -34.99700000     -66.49760000
S      -43.49740000     -29.85680000     -70.73420000
S      -46.48560000     -34.90900000     -67.80700000
C      -44.92660000     -30.75390000     -71.55750000
H      -45.72500000     -30.94200000     -70.74360000
H      -45.53650000     -30.04480000     -72.17740000
C      -47.08380000     -35.25840000     -69.57100000
H      -48.13180000     -35.52490000     -69.39400000
H      -46.46410000     -36.06470000     -69.85840000
C      -46.79060000     -34.08600000     -70.47720000
H      -47.30820000     -33.22860000     -70.06590000
H      -45.70380000     -33.92300000     -70.35270000
C      -44.47310000     -31.89620000     -72.42530000
H      -44.00680000     -32.71290000     -71.83500000
H      -43.68500000     -31.44140000     -73.07860000
C      -45.49690000     -32.58860000     -73.37970000
C      -45.24130000     -32.35340000     -74.73990000
C      -46.46260000     -33.60430000     -73.12110000
H      -44.55280000     -31.77370000     -75.27040000
C      -46.96170000     -34.09890000     -74.33970000
C      -47.00420000     -34.36260000     -71.95500000
C      -47.88870000     -35.31880000     -72.39790000
S      -46.20530000     -33.43690000     -75.66920000
S      -48.06970000     -35.47140000     -74.14600000
H      -48.54970000     -35.95070000     -71.84750000
