40
Properties=species:S:1:pos:R:3 #=T CELL(abcABC):=T 1.889726e+02=T 90.00000=T Traj:=T positionsangstrom=T Step:=T 0=T Bead:=T pbc="F F F"
C      -43.04270000     -36.67430000     -73.23340000
C      -42.94350000     -35.24140000     -73.41830000
C      -44.05760000     -34.54080000     -73.98610000
C      -45.18320000     -35.21600000     -74.43080000
C      -45.29180000     -36.55270000     -74.12110000
C      -44.26390000     -37.25750000     -73.50670000
H      -42.22670000     -37.17610000     -72.79190000
H      -43.88290000     -33.48780000     -74.16170000
H      -46.21840000     -37.15450000     -74.13050000
H      -44.52340000     -38.31670000     -73.32800000
C      -46.29680000     -34.58860000     -75.11940000
H      -47.23280000     -35.03950000     -74.75810000
H      -46.25190000     -34.66860000     -76.14920000
C      -41.94290000     -34.34060000     -72.79680000
H      -40.85940000     -34.51400000     -73.07490000
H      -42.23300000     -33.37130000     -73.11120000
S      -46.41910000     -32.71570000     -74.82420000
S      -41.86120000     -34.62840000     -70.91340000
C      -47.22870000     -32.53790000     -73.20300000
H      -47.36840000     -31.45250000     -73.07070000
H      -48.19650000     -33.00930000     -73.30540000
C      -43.45370000     -34.05870000     -70.24380000
H      -43.72900000     -34.81830000     -69.47980000
H      -44.25980000     -34.24900000     -70.99450000
C      -43.55730000     -32.57950000     -69.75390000
H      -42.65920000     -32.45070000     -69.18870000
H      -43.49640000     -32.00510000     -70.69390000
C      -46.34340000     -32.87360000     -71.99470000
H      -45.34670000     -32.31010000     -72.08920000
H      -45.99030000     -33.92870000     -72.02380000
C      -46.88100000     -32.40640000     -70.63930000
C      -48.17600000     -32.00810000     -70.58390000
C      -46.15740000     -32.08780000     -69.43770000
H      -48.91450000     -32.06130000     -71.40500000
C      -46.98780000     -31.62980000     -68.40030000
C      -44.77810000     -32.20050000     -68.94620000
C      -44.65250000     -31.85160000     -67.63050000
S      -48.63060000     -31.46410000     -68.98040000
S      -46.19100000     -31.45430000     -66.90580000
H      -43.67180000     -32.04500000     -67.17200000
