40
Properties=species:S:1:pos:R:3 #=T CELL(abcABC):=T 1.889726e+02=T 90.00000=T Traj:=T positionsangstrom=T Step:=T 0=T Bead:=T pbc="F F F"
C      -42.43630000     -34.72920000     -68.76870000
C      -43.77620000     -34.32710000     -68.45890000
C      -44.03010000     -32.94910000     -68.64320000
C      -43.13130000     -32.11420000     -69.31580000
C      -41.88170000     -32.63310000     -69.76700000
C      -41.56930000     -33.91700000     -69.42520000
H      -42.10870000     -35.66500000     -68.28430000
H      -45.03060000     -32.52080000     -68.33650000
H      -41.13020000     -32.03290000     -70.18070000
H      -40.61550000     -34.34420000     -69.62660000
C      -43.36970000     -30.59660000     -69.49790000
H      -42.49860000     -30.07530000     -69.01240000
H      -44.23170000     -30.18320000     -68.83780000
C      -44.65210000     -35.24320000     -67.71900000
H      -44.61700000     -36.25190000     -68.12910000
H      -44.36200000     -35.33640000     -66.64870000
S      -43.54440000     -29.82850000     -71.15660000
S      -46.41130000     -34.77990000     -67.76540000
C      -44.88120000     -30.87260000     -71.95120000
H      -45.75040000     -30.91780000     -71.24110000
H      -45.16110000     -30.28120000     -72.85530000
C      -46.78920000     -35.07060000     -69.54970000
H      -47.91090000     -35.00450000     -69.56520000
H      -46.52240000     -36.08320000     -69.78230000
C      -46.37960000     -33.96680000     -70.56840000
H      -46.69530000     -32.99030000     -70.19210000
H      -45.30000000     -33.88910000     -70.58450000
C      -44.43530000     -32.26500000     -72.45560000
H      -44.32060000     -32.99960000     -71.67490000
H      -43.42670000     -32.16560000     -72.99090000
C      -45.39620000     -32.85260000     -73.46590000
C      -45.26070000     -32.66720000     -74.81800000
C      -46.52020000     -33.67140000     -73.12270000
H      -44.42060000     -32.21610000     -75.34670000
C      -47.17700000     -34.16010000     -74.25530000
C      -47.05490000     -34.21800000     -71.92240000
C      -48.12560000     -35.08020000     -72.16790000
S      -46.46930000     -33.47970000     -75.76130000
S      -48.44690000     -35.33790000     -73.91030000
H      -48.74170000     -35.58690000     -71.47200000
