40
Properties=species:S:1:pos:R:3 #=T CELL(abcABC):=T 1.889726e+02=T 90.00000=T Traj:=T positionsangstrom=T Step:=T 0=T Bead:=T pbc="F F F"
C      -42.45410000     -34.58060000     -68.68540000
C      -43.73030000     -34.06020000     -68.32810000
C      -43.98430000     -32.72290000     -68.51510000
C      -43.10420000     -31.91480000     -69.21870000
C      -41.94110000     -32.45900000     -69.70570000
C      -41.61340000     -33.77960000     -69.42750000
H      -42.23560000     -35.58450000     -68.46230000
H      -44.93120000     -32.38120000     -68.09610000
H      -41.37890000     -31.86570000     -70.48620000
H      -40.80070000     -34.29940000     -70.01200000
C      -43.43860000     -30.46400000     -69.55840000
H      -42.82160000     -29.70390000     -69.10810000
H      -44.41670000     -30.22450000     -69.18120000
C      -44.78370000     -35.04950000     -67.69960000
H      -44.62840000     -36.02570000     -68.15590000
H      -44.64770000     -35.17890000     -66.62860000
S      -43.40290000     -30.17040000     -71.37310000
S      -46.57120000     -34.55820000     -67.85790000
C      -44.59500000     -31.44710000     -71.84810000
H      -45.06360000     -31.80820000     -70.95750000
H      -45.37680000     -31.02250000     -72.47280000
C      -46.96240000     -35.25760000     -69.61950000
H      -47.96400000     -35.07340000     -69.79510000
H      -46.79330000     -36.34540000     -69.54060000
C      -46.17440000     -34.47790000     -70.61730000
H      -46.21740000     -33.38530000     -70.35110000
H      -45.09990000     -34.77780000     -70.56790000
C      -44.01770000     -32.66710000     -72.69750000
H      -43.55870000     -33.41580000     -72.03490000
H      -43.21390000     -32.30060000     -73.42070000
C      -45.12460000     -33.22600000     -73.60880000
C      -45.24000000     -32.72140000     -74.87750000
C      -46.25320000     -34.03780000     -73.19720000
H      -44.54220000     -32.08100000     -75.34160000
C      -47.24920000     -34.06570000     -74.19800000
C      -46.74360000     -34.67380000     -71.98100000
C      -47.97250000     -35.24370000     -72.15840000
S      -46.78620000     -33.14980000     -75.59850000
S      -48.68390000     -34.90100000     -73.69950000
H      -48.63110000     -35.59240000     -71.38330000
