40
Properties=species:S:1:pos:R:3 #=T CELL(abcABC):=T 1.889726e+02=T 90.00000=T Traj:=T positionsangstrom=T Step:=T 0=T Bead:=T pbc="F F F"
C      -42.46860000     -34.87220000     -68.97520000
C      -43.74620000     -34.39530000     -68.50420000
C      -43.98500000     -33.01310000     -68.75260000
C      -43.04850000     -32.14260000     -69.32950000
C      -41.81370000     -32.70250000     -69.73950000
C      -41.52060000     -34.03250000     -69.53700000
H      -42.12510000     -35.86170000     -68.83030000
H      -44.94510000     -32.62550000     -68.47010000
H      -40.96560000     -32.06760000     -70.00270000
H      -40.52100000     -34.36360000     -69.82350000
C      -43.49880000     -30.69950000     -69.31010000
H      -42.91040000     -30.09660000     -68.66970000
H      -44.55910000     -30.69010000     -69.01100000
C      -44.59650000     -35.21580000     -67.63610000
H      -44.34780000     -36.28780000     -67.57970000
H      -44.36130000     -34.73470000     -66.65780000
S      -43.70350000     -29.85090000     -71.04750000
S      -46.42310000     -34.77190000     -67.75700000
C      -44.97560000     -30.83690000     -71.92290000
H      -45.82200000     -31.12340000     -71.29700000
H      -45.58490000     -30.16430000     -72.53790000
C      -47.00430000     -35.14150000     -69.45080000
H      -47.92910000     -35.70200000     -69.39710000
H      -46.14700000     -35.74290000     -69.85030000
C      -46.95300000     -33.87250000     -70.38770000
H      -47.83340000     -33.21560000     -70.15570000
H      -46.03080000     -33.26730000     -70.20850000
C      -44.31270000     -32.01990000     -72.62790000
H      -43.94220000     -32.72610000     -71.84960000
H      -43.43180000     -31.71720000     -73.16990000
C      -45.29900000     -32.71710000     -73.50880000
C      -45.20260000     -32.55490000     -74.88160000
C      -46.38860000     -33.65790000     -73.12140000
H      -44.49900000     -31.96690000     -75.48170000
C      -47.06060000     -34.09970000     -74.25790000
C      -46.98070000     -34.29340000     -71.89170000
C      -47.95220000     -35.19910000     -72.27760000
S      -46.46810000     -33.45750000     -75.71260000
S      -48.24640000     -35.30680000     -73.99010000
H      -48.57420000     -35.84910000     -71.65780000
