40
Properties=species:S:1:pos:R:3 #=T CELL(abcABC):=T 1.889726e+02=T 90.00000=T Traj:=T positionsangstrom=T Step:=T 0=T Bead:=T pbc="F F F"
C      -44.33150000     -30.69040000     -68.91110000
C      -45.22580000     -31.65620000     -69.42500000
C      -44.63340000     -32.87120000     -69.90050000
C      -43.29930000     -33.20410000     -69.73590000
C      -42.41850000     -32.17370000     -69.27150000
C      -42.91630000     -30.88880000     -68.98590000
H      -44.65270000     -29.77910000     -68.49410000
H      -45.30790000     -33.67310000     -70.24040000
H      -41.29190000     -32.17460000     -69.23610000
H      -42.19490000     -30.15880000     -68.62080000
C      -42.77960000     -34.49730000     -70.23990000
H      -43.63950000     -35.17210000     -70.52070000
H      -42.21090000     -35.02990000     -69.60770000
C      -46.67510000     -31.54420000     -69.49310000
H      -47.11650000     -32.53000000     -69.72040000
H      -47.26620000     -31.23880000     -68.61840000
S      -41.83260000     -34.07650000     -71.78800000
S      -47.10890000     -30.30530000     -70.89140000
C      -43.01810000     -33.16350000     -72.91330000
H      -43.56580000     -32.41330000     -72.35270000
H      -42.44390000     -32.53860000     -73.62840000
C      -46.08900000     -30.85540000     -72.36440000
H      -45.27070000     -31.33130000     -71.89420000
H      -45.90680000     -29.98070000     -72.99290000
C      -46.81280000     -31.85680000     -73.23030000
H      -47.79170000     -31.42220000     -73.49500000
H      -46.30860000     -31.98990000     -74.14560000
C      -43.92130000     -34.06940000     -73.69510000
H      -43.46250000     -34.68160000     -74.37250000
H      -44.31670000     -33.27870000     -74.43080000
C      -44.95700000     -34.89130000     -72.97750000
C      -44.68560000     -36.20920000     -72.52920000
C      -46.24900000     -34.34290000     -72.46630000
H      -43.94320000     -36.88560000     -73.00380000
C      -46.91370000     -35.39970000     -71.83750000
C      -47.13350000     -33.16870000     -72.53230000
C      -48.32160000     -33.39060000     -71.82550000
S      -46.08470000     -36.87960000     -71.70550000
S      -48.43560000     -34.94860000     -71.08470000
H      -49.13330000     -32.68190000     -71.77340000
