40
Properties=species:S:1:pos:R:3 #=T CELL(abcABC):=T 1.889726e+02=T 90.00000=T Traj:=T positionsangstrom=T Step:=T 0=T Bead:=T pbc="F F F"
C      -43.48640000     -30.75230000     -69.30280000
C      -44.48950000     -31.72960000     -69.49080000
C      -44.10370000     -32.97900000     -69.98870000
C      -42.84060000     -33.18210000     -70.49500000
C      -41.84530000     -32.19660000     -70.32650000
C      -42.14140000     -30.92780000     -69.66690000
H      -43.94010000     -29.85260000     -68.84900000
H      -44.86280000     -33.74620000     -69.99690000
H      -40.85120000     -32.36630000     -70.73010000
H      -41.36580000     -30.14780000     -69.65150000
C      -42.40710000     -34.46720000     -71.17890000
H      -43.19270000     -35.19970000     -71.05020000
H      -41.43630000     -34.68630000     -70.85820000
C      -45.95090000     -31.39820000     -69.21600000
H      -46.56830000     -32.30090000     -69.27220000
H      -46.03380000     -30.77300000     -68.25480000
S      -42.07350000     -34.20180000     -73.11510000
S      -46.67350000     -30.26940000     -70.59870000
C      -43.66370000     -33.37190000     -73.67470000
H      -43.96550000     -32.63080000     -72.86820000
H      -43.26240000     -32.92540000     -74.62660000
C      -46.36120000     -31.06650000     -72.29330000
H      -45.33630000     -31.62540000     -72.12080000
H      -46.25000000     -30.34670000     -73.07090000
C      -47.42550000     -31.96380000     -72.81930000
H      -48.29370000     -31.37040000     -72.98900000
H      -47.12940000     -32.23910000     -73.80770000
C      -44.97020000     -34.14760000     -74.05190000
H      -44.53990000     -34.83100000     -74.73530000
H      -45.62140000     -33.38810000     -74.56680000
C      -45.65970000     -34.88860000     -72.88450000
C      -45.19320000     -36.09660000     -72.42380000
C      -46.72310000     -34.37730000     -72.01230000
H      -44.44630000     -36.72980000     -72.87820000
C      -47.19360000     -35.32080000     -71.08680000
C      -47.58440000     -33.17180000     -71.93960000
C      -48.50160000     -33.24470000     -70.89710000
S      -46.11120000     -36.73470000     -71.03820000
S      -48.52630000     -34.82880000     -70.06580000
H      -49.28220000     -32.50100000     -70.70430000
