40
Properties=species:S:1:pos:R:3 #=T CELL(abcABC):=T 1.889726e+02=T 90.00000=T Traj:=T positionsangstrom=T Step:=T 0=T Bead:=T pbc="F F F"
C      -43.66600000     -30.77720000     -69.18380000
C      -44.55980000     -31.77270000     -69.60260000
C      -44.11550000     -32.88400000     -70.22510000
C      -42.74930000     -33.15280000     -70.39520000
C      -41.83550000     -32.20680000     -70.03660000
C      -42.27940000     -30.97200000     -69.49210000
H      -44.06780000     -29.91780000     -68.58190000
H      -44.82840000     -33.67060000     -70.52360000
H      -40.74260000     -32.43940000     -70.13120000
H      -41.42150000     -30.33450000     -69.06990000
C      -42.37500000     -34.35800000     -71.15850000
H      -43.03150000     -35.22530000     -71.03850000
H      -41.38740000     -34.77010000     -70.84300000
C      -46.04850000     -31.61490000     -69.37180000
H      -46.56450000     -32.58050000     -69.41730000
H      -46.24040000     -31.35610000     -68.37570000
S      -42.14710000     -34.08240000     -72.98000000
S      -46.67270000     -30.40350000     -70.48540000
C      -43.72820000     -33.15940000     -73.52260000
H      -44.05340000     -32.46830000     -72.73790000
H      -43.39470000     -32.59110000     -74.40950000
C      -46.21390000     -31.06560000     -72.15030000
H      -45.30030000     -31.69920000     -71.89990000
H      -45.72200000     -30.30620000     -72.77480000
C      -47.35310000     -31.92800000     -72.95310000
H      -48.30210000     -31.32710000     -73.05660000
H      -46.89240000     -32.03080000     -74.00390000
C      -44.78790000     -34.13190000     -73.99590000
H      -44.47480000     -34.93510000     -74.70270000
H      -45.52820000     -33.68180000     -74.61590000
C      -45.57140000     -34.92310000     -72.85350000
C      -45.18160000     -36.16190000     -72.43360000
C      -46.64870000     -34.36500000     -72.07590000
H      -44.48820000     -36.83290000     -72.87270000
C      -47.10880000     -35.25690000     -71.08960000
C      -47.51690000     -33.17010000     -72.12750000
C      -48.59930000     -33.35560000     -71.30220000
S      -46.13940000     -36.74710000     -71.07640000
S      -48.52010000     -34.77660000     -70.22040000
H      -49.33360000     -32.61230000     -71.11180000
