40
Properties=species:S:1:pos:R:3 #=T CELL(abcABC):=T 1.889726e+02=T 90.00000=T Traj:=T positionsangstrom=T Step:=T 0=T Bead:=T pbc="F F F"
C      -43.47120000     -32.44140000     -68.20800000
C      -43.80240000     -33.79260000     -68.18180000
C      -45.09580000     -34.20590000     -68.14180000
C      -46.16330000     -33.23410000     -68.10050000
C      -45.78330000     -31.87600000     -68.04030000
C      -44.45440000     -31.50920000     -68.18050000
H      -42.43630000     -32.23060000     -68.17180000
H      -45.41630000     -35.27630000     -68.22790000
H      -46.55860000     -31.15050000     -68.04650000
H      -44.24250000     -30.47360000     -68.07980000
C      -47.61690000     -33.66830000     -68.14370000
H      -48.11940000     -33.57980000     -67.19130000
H      -47.72550000     -34.74820000     -68.44040000
C      -42.72120000     -34.79680000     -68.35230000
H      -41.96690000     -34.52360000     -67.66260000
H      -42.98010000     -35.82190000     -68.12520000
S      -48.64800000     -32.67950000     -69.30800000
S      -41.72590000     -34.73850000     -69.89440000
C      -48.45460000     -33.51090000     -70.99120000
H      -49.17060000     -34.32950000     -71.01580000
H      -48.85210000     -32.81160000     -71.71250000
C      -42.96480000     -34.60080000     -71.23640000
H      -43.68220000     -35.37140000     -71.02380000
H      -42.51020000     -34.89520000     -72.18900000
C      -43.56630000     -33.21530000     -71.43510000
H      -44.35660000     -33.03980000     -70.63580000
H      -42.75730000     -32.41490000     -71.44130000
C      -47.04300000     -33.97660000     -71.36300000
H      -46.87750000     -34.97590000     -71.03330000
H      -46.37510000     -33.29200000     -70.93480000
C      -46.81810000     -33.85010000     -72.86900000
C      -47.72810000     -33.98950000     -73.86350000
C      -45.48200000     -33.52170000     -73.45040000
H      -48.76480000     -34.18620000     -73.61570000
C      -45.56620000     -33.14340000     -74.81230000
C      -44.15370000     -33.11920000     -72.91950000
C      -43.36050000     -32.52350000     -73.84960000
S      -47.22260000     -33.41630000     -75.47840000
S      -44.12200000     -32.51860000     -75.42200000
H      -42.43910000     -32.02260000     -73.69270000
