40
Properties=species:S:1:pos:R:3 #=T CELL(abcABC):=T 1.889726e+02=T 90.00000=T Traj:=T positionsangstrom=T Step:=T 0=T Bead:=T pbc="F F F"
C      -43.69740000     -32.43390000     -68.28060000
C      -44.20060000     -33.74480000     -68.27210000
C      -45.57780000     -33.85520000     -68.12810000
C      -46.42300000     -32.77120000     -67.94010000
C      -45.90650000     -31.48040000     -67.96550000
C      -44.51740000     -31.30980000     -68.17230000
H      -42.64800000     -32.39480000     -68.49820000
H      -46.03930000     -34.77760000     -68.14140000
H      -46.54230000     -30.58430000     -67.80700000
H      -44.06980000     -30.37000000     -68.18360000
C      -47.88410000     -32.93380000     -67.81040000
H      -48.34930000     -32.10730000     -67.21580000
H      -48.06040000     -33.98880000     -67.44500000
C      -43.26720000     -34.95350000     -68.39560000
H      -42.58580000     -35.14380000     -67.59750000
H      -43.90870000     -35.81440000     -68.60290000
S      -48.68260000     -32.73290000     -69.44920000
S      -42.04820000     -35.02110000     -69.79700000
C      -47.90540000     -34.02210000     -70.61670000
H      -47.79560000     -34.95090000     -70.06950000
H      -48.70870000     -34.07760000     -71.39660000
C      -43.09780000     -34.88990000     -71.34980000
H      -44.13070000     -35.19880000     -71.05400000
H      -42.71010000     -35.46310000     -72.19460000
C      -43.28840000     -33.40630000     -71.77540000
H      -43.89340000     -32.82170000     -71.13270000
H      -42.37070000     -32.81150000     -71.76810000
C      -46.54030000     -33.60720000     -71.22740000
H      -45.71610000     -34.36730000     -70.97820000
H      -46.04950000     -32.74960000     -70.68700000
C      -46.53690000     -33.35240000     -72.72880000
C      -47.59760000     -33.49830000     -73.60700000
C      -45.26410000     -33.17690000     -73.46450000
H      -48.60890000     -33.41050000     -73.18650000
C      -45.46220000     -33.16080000     -74.84940000
C      -43.85430000     -33.29290000     -73.10920000
C      -43.00550000     -33.21750000     -74.18620000
S      -47.17010000     -33.14620000     -75.26510000
S      -43.93340000     -33.18760000     -75.72320000
H      -41.97370000     -32.99610000     -74.19010000
