40
Properties=species:S:1:pos:R:3 #=T CELL(abcABC):=T 1.889726e+02=T 90.00000=T Traj:=T positionsangstrom=T Step:=T 0=T Bead:=T pbc="F F F"
C      -43.16560000     -30.51330000     -69.97180000
C      -44.29450000     -31.39640000     -69.86210000
C      -44.00310000     -32.72950000     -70.19260000
C      -42.79070000     -33.19510000     -70.75410000
C      -41.70700000     -32.26420000     -70.90360000
C      -41.91200000     -30.93910000     -70.56480000
H      -43.26000000     -29.43820000     -69.77340000
H      -44.85950000     -33.40590000     -70.08740000
H      -40.78890000     -32.74170000     -71.13770000
H      -41.24970000     -30.09850000     -70.80830000
C      -42.49080000     -34.65780000     -70.98210000
H      -43.13900000     -35.42690000     -70.50330000
H      -41.46920000     -34.81310000     -70.76000000
C      -45.64010000     -31.03820000     -69.32880000
H      -46.14000000     -31.98880000     -69.10320000
H      -45.48390000     -30.44680000     -68.36930000
S      -42.59760000     -34.87140000     -72.82840000
S      -46.66890000     -30.04830000     -70.49930000
C      -43.80940000     -33.61940000     -73.55360000
H      -43.98850000     -32.79790000     -72.83010000
H      -43.28270000     -33.09980000     -74.39150000
C      -46.54610000     -30.82370000     -72.16510000
H      -45.47580000     -31.24790000     -72.26970000
H      -46.58810000     -29.94540000     -72.81190000
C      -47.59920000     -31.88390000     -72.58220000
H      -48.68980000     -31.55270000     -72.72930000
H      -47.24890000     -32.13170000     -73.58690000
C      -45.10030000     -34.25520000     -74.13900000
H      -44.77960000     -34.95290000     -74.91160000
H      -45.76890000     -33.46710000     -74.57100000
C      -45.79460000     -34.87390000     -72.90450000
C      -45.44430000     -36.17470000     -72.54850000
C      -46.78070000     -34.35170000     -71.88110000
H      -44.81280000     -36.81700000     -73.17290000
C      -47.03250000     -35.31160000     -70.93730000
C      -47.52900000     -33.09370000     -71.66310000
C      -48.20710000     -33.15150000     -70.47800000
S      -46.24890000     -36.81740000     -71.14040000
S      -48.14760000     -34.70700000     -69.69950000
H      -48.75810000     -32.29700000     -70.07860000
