40
Properties=species:S:1:pos:R:3 #=T CELL(abcABC):=T 1.889726e+02=T 90.00000=T Traj:=T positionsangstrom=T Step:=T 0=T Bead:=T pbc="F F F"
C      -43.72920000     -32.60580000     -68.49630000
C      -44.28600000     -33.84110000     -68.28160000
C      -45.65920000     -33.82170000     -68.04990000
C      -46.39330000     -32.63570000     -67.97630000
C      -45.71630000     -31.42160000     -67.99020000
C      -44.38730000     -31.38730000     -68.29420000
H      -42.66070000     -32.66330000     -68.74770000
H      -46.08060000     -34.82730000     -68.02950000
H      -46.33460000     -30.55210000     -67.91740000
H      -43.91290000     -30.38990000     -68.48820000
C      -47.91770000     -32.79520000     -67.96310000
H      -48.40000000     -32.01030000     -67.26530000
H      -48.22990000     -33.70370000     -67.48690000
C      -43.58820000     -35.18400000     -68.52780000
H      -43.35180000     -35.74920000     -67.62460000
H      -44.35340000     -35.76780000     -69.05790000
S      -48.78980000     -32.73790000     -69.59990000
S      -42.09790000     -34.90240000     -69.54970000
C      -47.79880000     -33.95750000     -70.51240000
H      -47.49950000     -34.73540000     -69.84860000
H      -48.42820000     -34.41720000     -71.30550000
C      -42.79500000     -34.77520000     -71.21630000
H      -43.61060000     -35.50960000     -71.17530000
H      -42.12160000     -35.22620000     -71.91260000
C      -43.23040000     -33.39020000     -71.79090000
H      -43.89040000     -32.88440000     -71.06310000
H      -42.32790000     -32.73590000     -71.74570000
C      -46.54550000     -33.36590000     -71.13000000
H      -45.78920000     -34.01640000     -70.83750000
H      -46.37210000     -32.36550000     -70.68650000
C      -46.50780000     -33.26850000     -72.67120000
C      -47.60410000     -33.15890000     -73.52010000
C      -45.22700000     -33.37210000     -73.44200000
H      -48.63960000     -33.09030000     -73.11510000
C      -45.45530000     -33.36090000     -74.82120000
C      -43.81190000     -33.48560000     -73.13930000
C      -43.00330000     -33.40510000     -74.26440000
S      -47.13480000     -33.09420000     -75.24560000
S      -43.95740000     -33.30550000     -75.74510000
H      -41.93340000     -33.41020000     -74.35650000
