40
Properties=species:S:1:pos:R:3 #=T CELL(abcABC):=T 1.889726e+02=T 90.00000=T Traj:=T positionsangstrom=T Step:=T 0=T Bead:=T pbc="F F F"
C      -43.77040000     -32.44740000     -68.47280000
C      -44.33560000     -33.73580000     -68.31110000
C      -45.72510000     -33.72220000     -68.08810000
C      -46.46330000     -32.57440000     -68.02070000
C      -45.83840000     -31.36990000     -67.98570000
C      -44.47460000     -31.26020000     -68.23880000
H      -42.70720000     -32.40520000     -68.67620000
H      -46.24440000     -34.72340000     -68.00600000
H      -46.53710000     -30.51790000     -67.85420000
H      -43.99670000     -30.27020000     -68.22070000
C      -47.97950000     -32.71930000     -67.92710000
H      -48.35620000     -31.79130000     -67.47730000
H      -48.36520000     -33.70300000     -67.42700000
C      -43.62410000     -35.08000000     -68.33900000
H      -43.17730000     -35.39730000     -67.39500000
H      -44.35570000     -35.78790000     -68.66780000
S      -48.88940000     -32.70100000     -69.56510000
S      -42.22830000     -35.21630000     -69.58760000
C      -47.85850000     -33.73630000     -70.76560000
H      -47.60940000     -34.67800000     -70.27330000
H      -48.58000000     -33.86780000     -71.55810000
C      -42.95640000     -34.94150000     -71.27880000
H      -43.94290000     -35.28760000     -71.25610000
H      -42.32060000     -35.47010000     -71.98770000
C      -43.14610000     -33.48640000     -71.75480000
H      -43.81160000     -32.94160000     -71.04690000
H      -42.23180000     -32.87680000     -71.79170000
C      -46.52120000     -33.11920000     -71.20040000
H      -45.60450000     -33.60710000     -70.71110000
H      -46.38240000     -32.11580000     -70.83040000
C      -46.31480000     -33.13710000     -72.68610000
C      -47.35410000     -32.90420000     -73.48260000
C      -45.11040000     -33.38920000     -73.47460000
H      -48.33320000     -32.65960000     -73.23080000
C      -45.34680000     -33.35100000     -74.84600000
C      -43.71310000     -33.51310000     -73.14780000
C      -42.94020000     -33.61810000     -74.25070000
S      -47.02330000     -32.93470000     -75.21050000
S      -43.89340000     -33.68590000     -75.71180000
H      -41.83980000     -33.54460000     -74.14730000
