40
Properties=species:S:1:pos:R:3 #=T CELL(abcABC):=T 1.889726e+02=T 90.00000=T Traj:=T positionsangstrom=T Step:=T 0=T Bead:=T pbc="F F F"
C      -43.66420000     -32.46240000     -68.28100000
C      -44.24170000     -33.72350000     -68.18360000
C      -45.64510000     -33.81010000     -68.00480000
C      -46.48010000     -32.68810000     -67.99670000
C      -45.87230000     -31.47580000     -68.06060000
C      -44.50370000     -31.34270000     -68.21440000
H      -42.62370000     -32.33900000     -68.55100000
H      -46.19030000     -34.73960000     -67.91860000
H      -46.50220000     -30.55000000     -68.02030000
H      -44.00440000     -30.43410000     -68.31800000
C      -47.94130000     -32.79480000     -67.80500000
H      -48.37630000     -32.01270000     -67.24720000
H      -48.22170000     -33.68030000     -67.32440000
C      -43.36040000     -34.96360000     -68.22440000
H      -42.83900000     -35.14390000     -67.26540000
H      -44.10530000     -35.80660000     -68.24310000
S      -48.75910000     -32.59840000     -69.43650000
S      -42.25890000     -35.16210000     -69.63840000
C      -47.74090000     -33.65550000     -70.60590000
H      -47.33380000     -34.53940000     -70.11010000
H      -48.42210000     -34.03410000     -71.43640000
C      -43.40710000     -35.04300000     -71.06720000
H      -44.43560000     -35.37330000     -70.79360000
H      -43.15090000     -35.88650000     -71.70370000
C      -43.24850000     -33.71520000     -71.77940000
H      -43.45160000     -32.87420000     -71.11820000
H      -42.13000000     -33.63260000     -71.95890000
C      -46.54490000     -32.88450000     -71.33750000
H      -45.67150000     -33.33370000     -70.81540000
H      -46.61920000     -31.85860000     -71.04570000
C      -46.45830000     -32.98180000     -72.86720000
C      -47.45130000     -32.69550000     -73.72730000
C      -45.20950000     -33.30390000     -73.49450000
H      -48.34530000     -32.18220000     -73.59860000
C      -45.30550000     -33.25890000     -74.87210000
C      -43.88230000     -33.66400000     -73.14310000
C      -43.05460000     -33.94920000     -74.21200000
S      -46.92900000     -32.95270000     -75.48490000
S      -43.88480000     -33.68860000     -75.69260000
H      -41.99280000     -33.89120000     -74.13540000
