40
Properties=species:S:1:pos:R:3 #=T CELL(abcABC):=T 1.889726e+02=T 90.00000=T Traj:=T positionsangstrom=T Step:=T 0=T Bead:=T pbc="F F F"
C      -42.27090000     -33.63600000     -73.64490000
C      -42.64160000     -32.32030000     -73.34260000
C      -42.54110000     -31.88030000     -72.00340000
C      -41.87690000     -32.68110000     -71.15310000
C      -41.40730000     -33.96190000     -71.43190000
C      -41.69830000     -34.46210000     -72.68680000
H      -42.43260000     -34.02550000     -74.64200000
H      -42.95790000     -30.93180000     -71.66670000
H      -41.06690000     -34.60800000     -70.60710000
H      -41.46460000     -35.54130000     -72.89430000
C      -41.71090000     -32.06850000     -69.72690000
H      -42.29190000     -31.08770000     -69.72450000
H      -40.66640000     -31.79780000     -69.41480000
C      -43.50630000     -31.61810000     -74.32600000
H      -43.97760000     -30.76560000     -73.86780000
H      -42.88450000     -31.24700000     -75.11650000
S      -42.42530000     -33.13890000     -68.35590000
S      -44.67680000     -32.72990000     -75.20840000
C      -44.27370000     -33.29700000     -68.35030000
H      -44.58140000     -34.00500000     -67.52880000
H      -44.66770000     -32.28520000     -68.18390000
C      -46.14350000     -33.23570000     -74.14380000
H      -46.86450000     -33.77280000     -74.88010000
H      -46.74110000     -32.30500000     -73.84590000
C      -45.99050000     -34.14410000     -72.88650000
H      -45.76630000     -35.20480000     -73.16480000
H      -45.04560000     -33.74680000     -72.33860000
C      -44.99710000     -33.86700000     -69.61770000
H      -44.68330000     -34.87110000     -69.74210000
H      -44.66630000     -33.33210000     -70.47750000
C      -46.50170000     -33.83710000     -69.48320000
C      -47.19400000     -33.59260000     -68.37070000
C      -47.43400000     -34.00300000     -70.67790000
H      -46.80550000     -33.40940000     -67.40200000
C      -48.72780000     -33.84500000     -70.26930000
C      -47.29340000     -34.22380000     -72.10380000
C      -48.51290000     -34.40940000     -72.67110000
S      -48.92080000     -33.47120000     -68.59520000
S      -49.85760000     -34.20950000     -71.53910000
H      -48.74840000     -34.66750000     -73.71240000
