40
Properties=species:S:1:pos:R:3 #=T CELL(abcABC):=T 1.889726e+02=T 90.00000=T Traj:=T positionsangstrom=T Step:=T 0=T Bead:=T pbc="F F F"
C      -41.82110000     -32.32500000     -72.19810000
C      -41.92180000     -33.65010000     -71.73770000
C      -42.71680000     -34.59480000     -72.36230000
C      -43.26970000     -34.21580000     -73.61760000
C      -43.17150000     -32.91750000     -74.17940000
C      -42.40700000     -31.99550000     -73.46350000
H      -41.27590000     -31.63150000     -71.70070000
H      -42.91790000     -35.49380000     -71.82660000
H      -43.60490000     -32.77970000     -75.12120000
H      -42.32290000     -30.98470000     -73.69990000
C      -44.14760000     -35.19650000     -74.38990000
H      -44.37890000     -36.13850000     -73.78560000
H      -43.50840000     -35.54450000     -75.15090000
C      -41.43640000     -33.88760000     -70.25260000
H      -40.36970000     -34.21670000     -70.30760000
H      -41.57520000     -32.94090000     -69.79280000
S      -45.78570000     -34.57690000     -75.07120000
S      -42.27770000     -35.26390000     -69.33250000
C      -46.65700000     -34.10360000     -73.53070000
H      -47.73110000     -34.08120000     -73.79310000
H      -46.53360000     -35.01060000     -72.84290000
C      -43.94760000     -34.67130000     -68.74150000
H      -43.88250000     -33.88220000     -67.91920000
H      -44.49600000     -35.49760000     -68.21510000
C      -44.94950000     -34.31830000     -69.84230000
H      -44.44470000     -33.73350000     -70.66580000
H      -45.25960000     -35.18550000     -70.33910000
C      -46.21070000     -32.77570000     -72.86780000
H      -46.35080000     -31.98040000     -73.65320000
H      -45.15720000     -32.85620000     -72.52410000
C      -47.18890000     -32.43370000     -71.78930000
C      -48.27430000     -31.64800000     -72.09280000
C      -47.13370000     -32.85130000     -70.40680000
H      -48.67110000     -31.32140000     -73.06620000
C      -48.17140000     -32.13330000     -69.66270000
C      -46.22580000     -33.50710000     -69.45480000
C      -46.53020000     -33.26830000     -68.14760000
S      -49.17880000     -31.20690000     -70.63930000
S      -48.02120000     -32.43380000     -67.88830000
H      -46.07620000     -33.51340000     -67.20500000
