40
Properties=species:S:1:pos:R:3 #=T CELL(abcABC):=T 1.889726e+02=T 90.00000=T Traj:=T positionsangstrom=T Step:=T 0=T Bead:=T pbc="F F F"
C      -41.54830000     -32.03880000     -71.41610000
C      -42.80440000     -32.21570000     -70.80830000
C      -43.64030000     -33.26770000     -71.19740000
C      -43.23310000     -34.29770000     -72.04650000
C      -41.89960000     -34.16510000     -72.56880000
C      -41.18380000     -33.02920000     -72.28970000
H      -40.97320000     -31.13170000     -71.27600000
H      -44.60040000     -33.47980000     -70.71420000
H      -41.61690000     -34.90270000     -73.29290000
H      -40.20060000     -33.02870000     -72.79660000
C      -44.11840000     -35.42320000     -72.43840000
H      -44.93730000     -35.61530000     -71.77440000
H      -43.39710000     -36.26770000     -72.57820000
C      -43.31310000     -31.29050000     -69.78590000
H      -43.89310000     -31.74230000     -68.95410000
H      -42.54760000     -30.68720000     -69.21750000
S      -44.69260000     -35.10530000     -74.19480000
S      -44.36520000     -29.81870000     -70.46860000
C      -45.36440000     -33.37810000     -74.02300000
H      -44.54550000     -32.93030000     -73.38080000
H      -45.24400000     -32.82930000     -74.95450000
C      -45.71270000     -30.70310000     -71.40880000
H      -45.20420000     -31.50310000     -71.82510000
H      -45.96380000     -29.99910000     -72.22610000
C      -47.03900000     -31.01510000     -70.64000000
H      -47.06980000     -30.24970000     -69.86700000
H      -47.82290000     -30.90820000     -71.37210000
C      -46.80030000     -33.16210000     -73.46770000
H      -47.47110000     -33.44530000     -74.25020000
H      -47.01510000     -32.12070000     -73.23170000
C      -47.09210000     -34.01110000     -72.22720000
C      -47.24040000     -35.38640000     -72.31390000
C      -47.08390000     -33.57380000     -70.85010000
H      -47.52930000     -35.95290000     -73.25490000
C      -47.27390000     -34.72580000     -70.03380000
C      -47.11930000     -32.34850000     -70.04750000
C      -47.19640000     -32.59000000     -68.73560000
S      -47.46300000     -36.26660000     -70.81060000
S      -47.16410000     -34.31300000     -68.32770000
H      -47.24250000     -31.80830000     -68.00420000
