40
Properties=species:S:1:pos:R:3 #=T CELL(abcABC):=T 1.889726e+02=T 90.00000=T Traj:=T positionsangstrom=T Step:=T 0=T Bead:=T pbc="F F F"
C      -41.61400000     -32.06740000     -71.16470000
C      -42.80860000     -32.35150000     -70.57930000
C      -43.67590000     -33.32780000     -71.09240000
C      -43.23230000     -34.08860000     -72.21330000
C      -42.03580000     -33.75700000     -72.84060000
C      -41.19200000     -32.81530000     -72.27580000
H      -40.94040000     -31.26370000     -70.79470000
H      -44.55610000     -33.47990000     -70.51280000
H      -41.70970000     -34.28360000     -73.76650000
H      -40.33690000     -32.54060000     -72.81630000
C      -44.07020000     -35.24670000     -72.67230000
H      -44.78060000     -35.30060000     -71.85410000
H      -43.60720000     -36.19910000     -72.61220000
C      -43.34420000     -31.33080000     -69.54890000
H      -44.15910000     -31.71480000     -68.95890000
H      -42.44960000     -31.00960000     -68.99040000
S      -45.06280000     -34.94790000     -74.27750000
S      -43.97860000     -29.91690000     -70.49240000
C      -45.82700000     -33.25370000     -73.93620000
H      -45.25490000     -32.80610000     -73.14220000
H      -45.79170000     -32.69570000     -74.92860000
C      -45.35160000     -30.66970000     -71.58580000
H      -44.90730000     -31.50560000     -72.15550000
H      -45.47480000     -29.95120000     -72.33770000
C      -46.67670000     -31.14040000     -70.88380000
H      -47.16550000     -30.47630000     -70.20790000
H      -47.37170000     -31.12550000     -71.68970000
C      -47.30620000     -33.33210000     -73.44740000
H      -47.97460000     -33.80540000     -74.19990000
H      -47.58270000     -32.30590000     -73.35420000
C      -47.46790000     -34.17140000     -72.19350000
C      -47.88770000     -35.50790000     -72.20540000
C      -47.00250000     -33.75800000     -70.87100000
H      -48.20870000     -36.08380000     -73.07500000
C      -47.09100000     -34.78770000     -69.94140000
C      -46.62260000     -32.49810000     -70.24470000
C      -46.60140000     -32.57640000     -68.87330000
S      -47.73610000     -36.34570000     -70.62530000
S      -46.80980000     -34.28070000     -68.28510000
H      -46.39070000     -31.74770000     -68.20400000
