40
Properties=species:S:1:pos:R:3 #=T CELL(abcABC):=T 1.889726e+02=T 90.00000=T Traj:=T positionsangstrom=T Step:=T 0=T Bead:=T pbc="F F F"
C      -42.55420000     -35.65230000     -71.05120000
C      -43.14230000     -35.38200000     -69.80740000
C      -43.10780000     -34.06460000     -69.17660000
C      -42.45290000     -33.00830000     -69.80700000
C      -41.71040000     -33.26510000     -70.96790000
C      -41.88530000     -34.50780000     -71.63880000
H      -42.57970000     -36.65000000     -71.52980000
H      -43.64390000     -33.94560000     -68.24920000
H      -41.10200000     -32.49620000     -71.50700000
H      -41.41540000     -34.62550000     -72.53800000
C      -42.29060000     -31.63440000     -69.04060000
H      -41.47660000     -31.03020000     -69.48510000
H      -42.12190000     -31.70620000     -67.94340000
C      -43.86250000     -36.49090000     -69.02240000
H      -43.96810000     -37.41400000     -69.65660000
H      -43.37910000     -36.68910000     -68.09180000
S      -43.73080000     -30.56650000     -69.10770000
S      -45.62380000     -36.05020000     -68.76440000
C      -44.23340000     -30.61930000     -70.90370000
H      -44.43090000     -29.60140000     -71.27620000
H      -43.36260000     -31.06210000     -71.51880000
C      -46.41750000     -36.18920000     -70.47390000
H      -47.44890000     -36.51710000     -70.35670000
H      -45.90620000     -36.94270000     -71.04600000
C      -46.23690000     -34.67460000     -70.94090000
H      -46.35890000     -34.08990000     -70.03230000
H      -45.20130000     -34.49330000     -71.13220000
C      -45.55560000     -31.52020000     -70.96880000
H      -46.23840000     -31.10240000     -70.26110000
H      -45.33380000     -32.48560000     -70.47090000
C      -46.34000000     -31.66230000     -72.25530000
C      -46.52840000     -30.59590000     -73.14840000
C      -46.94140000     -32.93400000     -72.68110000
H      -45.96830000     -29.61310000     -73.13440000
C      -47.73600000     -32.80760000     -73.83800000
C      -47.07140000     -34.21820000     -72.06950000
C      -47.88680000     -35.07370000     -72.80980000
S      -47.38810000     -31.18780000     -74.56050000
S      -48.62370000     -34.25720000     -74.19680000
H      -48.05550000     -36.13550000     -72.67220000
