40
Properties=species:S:1:pos:R:3 #=T CELL(abcABC):=T 1.889726e+02=T 90.00000=T Traj:=T positionsangstrom=T Step:=T 0=T Bead:=T pbc="F F F"
C      -41.79360000     -32.70360000     -72.23100000
C      -42.81480000     -32.98680000     -71.36990000
C      -43.69200000     -33.97120000     -71.74580000
C      -43.67620000     -34.59140000     -72.99440000
C      -42.66980000     -34.16990000     -73.89040000
C      -41.71290000     -33.25510000     -73.49920000
H      -41.06120000     -31.92620000     -71.97660000
H      -44.44100000     -34.31750000     -71.02420000
H      -42.51270000     -34.67710000     -74.89070000
H      -40.81260000     -32.94510000     -74.01820000
C      -44.76520000     -35.54330000     -73.50020000
H      -45.34420000     -36.01390000     -72.70050000
H      -44.35270000     -36.37100000     -74.07960000
C      -42.86110000     -32.36090000     -69.98760000
H      -43.50640000     -32.99710000     -69.31890000
H      -41.84950000     -32.43820000     -69.57190000
S      -45.81170000     -34.62320000     -74.72890000
S      -43.44260000     -30.54670000     -69.93620000
C      -46.03190000     -32.96020000     -73.97140000
H      -45.05060000     -32.73540000     -73.58050000
H      -46.14580000     -32.20770000     -74.83620000
C      -44.98010000     -30.52830000     -70.96820000
H      -44.98070000     -31.29820000     -71.74680000
H      -45.05840000     -29.55930000     -71.57020000
C      -46.15740000     -30.69200000     -69.94510000
H      -45.83030000     -30.17610000     -69.03720000
H      -47.09380000     -30.10560000     -70.28610000
C      -47.11820000     -32.68930000     -72.85660000
H      -48.03930000     -32.61660000     -73.46680000
H      -46.96830000     -31.71550000     -72.38190000
C      -47.23840000     -33.63500000     -71.76970000
C      -47.58730000     -34.94370000     -71.92740000
C      -46.95990000     -33.27940000     -70.38320000
H      -47.94360000     -35.40660000     -72.79050000
C      -47.11290000     -34.41740000     -69.54990000
C      -46.47950000     -32.09790000     -69.54010000
C      -46.34350000     -32.50960000     -68.22250000
S      -47.72390000     -35.81090000     -70.38210000
S      -46.59350000     -34.23460000     -67.93000000
H      -45.94200000     -31.76340000     -67.44910000
