40
Properties=species:S:1:pos:R:3 #=T CELL(abcABC):=T 1.889726e+02=T 90.00000=T Traj:=T positionsangstrom=T Step:=T 0=T Bead:=T pbc="F F F"
C      -41.48370000     -32.21820000     -71.80850000
C      -42.64780000     -32.43700000     -71.04140000
C      -43.53720000     -33.50780000     -71.39020000
C      -43.31690000     -34.18760000     -72.57730000
C      -42.22740000     -33.92680000     -73.35800000
C      -41.25660000     -33.03030000     -72.94590000
H      -40.75760000     -31.38630000     -71.67290000
H      -44.42910000     -33.72950000     -70.78390000
H      -42.04140000     -34.44300000     -74.31740000
H      -40.49140000     -32.70540000     -73.69470000
C      -44.30310000     -35.26380000     -73.00950000
H      -44.96550000     -35.47430000     -72.16250000
H      -43.72970000     -36.17830000     -73.13520000
C      -42.79420000     -31.66300000     -69.76670000
H      -43.03680000     -32.43380000     -69.01520000
H      -41.91190000     -31.09350000     -69.39620000
S      -45.32560000     -34.62110000     -74.47160000
S      -44.18650000     -30.35950000     -69.61250000
C      -46.09190000     -33.11820000     -73.81700000
H      -45.46560000     -32.75890000     -72.98520000
H      -46.04340000     -32.22770000     -74.56510000
C      -45.02530000     -30.49310000     -71.23900000
H      -44.35600000     -31.14550000     -71.83050000
H      -45.09570000     -29.52190000     -71.74610000
C      -46.44000000     -31.05790000     -71.11240000
H      -46.98700000     -30.15460000     -70.75710000
H      -46.87990000     -31.12530000     -72.06780000
C      -47.57190000     -33.47900000     -73.43280000
H      -48.04080000     -33.96530000     -74.32640000
H      -48.10520000     -32.56820000     -73.20390000
C      -47.49080000     -34.28330000     -72.08370000
C      -47.88550000     -35.59580000     -71.92990000
C      -47.02800000     -33.67920000     -70.79030000
H      -48.24210000     -36.15360000     -72.75160000
C      -47.14820000     -34.66710000     -69.72440000
C      -46.68050000     -32.33570000     -70.30200000
C      -46.45490000     -32.41530000     -68.95780000
S      -47.62600000     -36.24140000     -70.30460000
S      -46.66760000     -34.00410000     -68.17670000
H      -46.18480000     -31.57890000     -68.28680000
