40
Properties=species:S:1:pos:R:3 #=T CELL(abcABC):=T 1.889726e+02=T 90.00000=T Traj:=T positionsangstrom=T Step:=T 0=T Bead:=T pbc="F F F"
C      -41.61260000     -32.85140000     -72.33020000
C      -42.68360000     -33.10430000     -71.43780000
C      -43.72390000     -33.97290000     -71.88250000
C      -43.77440000     -34.52030000     -73.16430000
C      -42.77930000     -34.09360000     -74.01280000
C      -41.72430000     -33.31450000     -73.61290000
H      -40.88120000     -32.08230000     -72.02030000
H      -44.47960000     -34.26820000     -71.18100000
H      -42.69490000     -34.53170000     -74.96950000
H      -41.06420000     -33.04910000     -74.45020000
C      -44.89140000     -35.39370000     -73.58600000
H      -45.37630000     -35.88280000     -72.77760000
H      -44.51840000     -36.17570000     -74.23600000
C      -42.69100000     -32.61310000     -70.00080000
H      -43.36310000     -33.22720000     -69.46710000
H      -41.70410000     -32.64590000     -69.56360000
S      -46.23210000     -34.42160000     -74.49370000
S      -43.12040000     -30.73440000     -69.87680000
C      -46.38800000     -32.76130000     -73.67320000
H      -45.40520000     -32.57510000     -73.00420000
H      -46.41530000     -32.07550000     -74.51050000
C      -44.58080000     -30.76210000     -70.88180000
H      -44.49230000     -31.49390000     -71.74180000
H      -44.52430000     -29.84370000     -71.48930000
C      -45.97010000     -30.80140000     -70.27950000
H      -46.04670000     -29.99830000     -69.48490000
H      -46.61730000     -30.59520000     -71.11450000
C      -47.64700000     -32.67320000     -72.76230000
H      -48.63220000     -32.70030000     -73.31130000
H      -47.58260000     -31.63830000     -72.41100000
C      -47.56980000     -33.58700000     -71.66500000
C      -48.06460000     -34.85490000     -71.77390000
C      -46.84890000     -33.36940000     -70.38440000
H      -48.60160000     -35.19510000     -72.68230000
C      -47.03350000     -34.43310000     -69.50560000
C      -46.30700000     -32.20400000     -69.73780000
C      -45.86510000     -32.48640000     -68.46820000
S      -47.77390000     -35.81090000     -70.32500000
S      -46.35760000     -34.06120000     -67.93230000
H      -45.40610000     -31.75190000     -67.82260000
