40
Properties=species:S:1:pos:R:3 #=T CELL(abcABC):=T 1.889726e+02=T 90.00000=T Traj:=T positionsangstrom=T Step:=T 0=T Bead:=T pbc="F F F"
C      -41.68780000     -32.55520000     -71.86040000
C      -42.74240000     -32.96080000     -70.99670000
C      -43.69170000     -33.89080000     -71.48260000
C      -43.51760000     -34.44270000     -72.78090000
C      -42.45890000     -33.99790000     -73.56310000
C      -41.47300000     -33.14210000     -73.09180000
H      -41.04110000     -31.80470000     -71.46230000
H      -44.62880000     -34.10600000     -70.95220000
H      -42.36280000     -34.30880000     -74.55730000
H      -40.71620000     -32.72600000     -73.72540000
C      -44.50200000     -35.44950000     -73.38600000
H      -44.92160000     -35.94030000     -72.47500000
H      -43.99720000     -36.27020000     -73.93740000
C      -42.99740000     -32.16200000     -69.77690000
H      -43.81540000     -32.53300000     -69.12760000
H      -42.00200000     -32.16020000     -69.20400000
S      -45.77370000     -34.71530000     -74.51240000
S      -43.44910000     -30.48610000     -70.20690000
C      -46.11060000     -33.00030000     -73.93780000
H      -45.23260000     -32.46280000     -73.50190000
H      -46.24300000     -32.40330000     -74.78240000
C      -45.01300000     -30.71400000     -71.17170000
H      -45.01010000     -31.71150000     -71.73430000
H      -45.05580000     -29.80770000     -71.78090000
C      -46.39330000     -30.76090000     -70.43130000
H      -46.57930000     -30.00550000     -69.57500000
H      -47.16130000     -30.48160000     -71.11290000
C      -47.28520000     -32.84800000     -73.03270000
H      -48.17590000     -33.08960000     -73.60990000
H      -47.29070000     -31.80100000     -72.76500000
C      -47.28480000     -33.86190000     -71.88770000
C      -47.69510000     -35.15940000     -71.93400000
C      -46.95910000     -33.44930000     -70.56290000
H      -48.02090000     -35.81470000     -72.75800000
C      -47.02650000     -34.48210000     -69.64890000
C      -46.56800000     -32.18230000     -69.87520000
C      -46.42990000     -32.36640000     -68.55600000
S      -47.62270000     -35.98020000     -70.41050000
S      -46.73200000     -34.00600000     -67.98430000
H      -46.38240000     -31.64650000     -67.79390000
