40
Properties=species:S:1:pos:R:3 #=T CELL(abcABC):=T 1.889726e+02=T 90.00000=T Traj:=T positionsangstrom=T Step:=T 0=T Bead:=T pbc="F F F"
C      -41.99010000     -33.31650000     -72.82990000
C      -42.91900000     -33.53560000     -71.82850000
C      -44.09140000     -34.25710000     -72.15020000
C      -44.31000000     -34.71330000     -73.47190000
C      -43.31700000     -34.58630000     -74.47300000
C      -42.17640000     -33.80380000     -74.13510000
H      -41.14030000     -32.63120000     -72.55520000
H      -44.88350000     -34.40800000     -71.45550000
H      -43.40300000     -35.05760000     -75.45650000
H      -41.38030000     -33.72660000     -74.88200000
C      -45.59920000     -35.35100000     -73.84970000
H      -45.97900000     -35.88810000     -72.96990000
H      -45.50580000     -35.98780000     -74.73480000
C      -42.52970000     -33.06200000     -70.46390000
H      -43.27820000     -33.56840000     -69.72820000
H      -41.49550000     -33.35740000     -70.31990000
S      -46.82880000     -34.04430000     -74.53320000
S      -42.62790000     -31.25190000     -70.05650000
C      -46.43310000     -32.49130000     -73.62650000
H      -45.40580000     -32.54190000     -73.28550000
H      -46.55290000     -31.66730000     -74.37190000
C      -44.18990000     -30.87060000     -70.88070000
H      -44.33810000     -31.59340000     -71.65750000
H      -44.09120000     -29.91520000     -71.44030000
C      -45.32130000     -30.74630000     -69.87280000
H      -45.09480000     -29.98060000     -69.09080000
H      -46.20100000     -30.34230000     -70.48330000
C      -47.36580000     -32.12740000     -72.46830000
H      -48.39870000     -31.97520000     -72.78640000
H      -47.14860000     -31.11500000     -72.14970000
C      -47.33620000     -33.11480000     -71.30740000
C      -48.05470000     -34.30510000     -71.42040000
C      -46.59690000     -33.07440000     -70.06180000
H      -48.53940000     -34.61270000     -72.36660000
C      -46.80120000     -34.23280000     -69.34960000
C      -45.81730000     -32.05390000     -69.29920000
C      -45.49430000     -32.52770000     -68.02550000
S      -47.80310000     -35.41010000     -70.14950000
S      -46.15460000     -34.16170000     -67.73000000
H      -44.94640000     -32.00940000     -67.31640000
