40
Properties=species:S:1:pos:R:3 #=T CELL(abcABC):=T 1.889726e+02=T 90.00000=T Traj:=T positionsangstrom=T Step:=T 0=T Bead:=T pbc="F F F"
C      -41.82300000     -32.86990000     -72.64130000
C      -42.68030000     -33.14930000     -71.55740000
C      -43.79720000     -33.97780000     -71.73410000
C      -44.09680000     -34.51670000     -72.99110000
C      -43.20320000     -34.26230000     -74.05700000
C      -42.06240000     -33.46210000     -73.88250000
H      -40.98150000     -32.21230000     -72.55030000
H      -44.48890000     -34.19020000     -70.92780000
H      -43.29830000     -34.79380000     -75.02620000
H      -41.33510000     -33.23810000     -74.58210000
C      -45.38750000     -35.16320000     -73.35720000
H      -45.97720000     -35.39950000     -72.46170000
H      -45.29750000     -36.21480000     -73.75620000
C      -42.40760000     -32.77840000     -70.11140000
H      -42.84950000     -33.43290000     -69.28190000
H      -41.27290000     -32.88100000     -69.98700000
S      -46.43900000     -34.21840000     -74.48660000
S      -42.85210000     -30.98320000     -69.99840000
C      -46.67400000     -32.72940000     -73.52450000
H      -45.81810000     -32.55400000     -72.83670000
H      -46.68080000     -31.69800000     -74.12560000
C      -44.41410000     -30.71850000     -71.14310000
H      -44.26940000     -31.44020000     -71.99090000
H      -44.22680000     -29.78550000     -71.55730000
C      -45.81020000     -30.83370000     -70.61850000
H      -45.86400000     -29.97050000     -69.89050000
H      -46.51140000     -30.65400000     -71.36060000
C      -47.89990000     -32.74030000     -72.65080000
H      -48.72170000     -33.09400000     -73.28060000
H      -48.09500000     -31.78590000     -72.27440000
C      -47.77770000     -33.62460000     -71.44590000
C      -48.38430000     -34.84540000     -71.34540000
C      -46.81270000     -33.33590000     -70.40370000
H      -48.93010000     -35.33640000     -72.11000000
C      -46.72260000     -34.41880000     -69.50940000
C      -46.03730000     -32.18040000     -69.94080000
C      -45.40630000     -32.41990000     -68.75250000
S      -47.89030000     -35.67480000     -69.85460000
S      -45.79330000     -34.03960000     -68.09540000
H      -44.59630000     -31.87160000     -68.31780000
