40
Properties=species:S:1:pos:R:3 #=T CELL(abcABC):=T 1.889726e+02=T 90.00000=T Traj:=T positionsangstrom=T Step:=T 0=T Bead:=T pbc="F F F"
C      -42.66670000     -34.68310000     -71.88760000
C      -43.25050000     -35.48290000     -70.83290000
C      -43.53290000     -34.95170000     -69.57980000
C      -42.96750000     -33.68600000     -69.26030000
C      -42.47020000     -32.88140000     -70.23590000
C      -42.36560000     -33.35390000     -71.58320000
H      -42.38110000     -35.13230000     -72.86670000
H      -43.93850000     -35.60990000     -68.82760000
H      -42.20810000     -31.86860000     -70.02020000
H      -42.12860000     -32.63100000     -72.37710000
C      -43.27380000     -33.15450000     -67.90530000
H      -42.70730000     -32.26460000     -67.71170000
H      -42.92650000     -33.91480000     -67.20030000
C      -43.64630000     -36.88580000     -71.02930000
H      -43.46670000     -37.23920000     -72.08270000
H      -42.99160000     -37.49640000     -70.35840000
S      -45.07340000     -32.68370000     -67.67810000
S      -45.42370000     -37.25380000     -70.72850000
C      -45.31110000     -31.83880000     -69.26850000
H      -45.03100000     -30.78390000     -69.28470000
H      -44.68860000     -32.30370000     -70.08550000
C      -46.14620000     -36.07820000     -71.87610000
H      -47.12730000     -36.35950000     -72.20170000
H      -45.45150000     -36.15300000     -72.73860000
C      -46.31260000     -34.65100000     -71.41370000
H      -47.18530000     -34.50380000     -70.73270000
H      -45.45250000     -34.41160000     -70.78350000
C      -46.74410000     -31.79850000     -69.82030000
H      -47.40000000     -31.15850000     -69.22500000
H      -47.22860000     -32.80390000     -69.78920000
C      -46.81060000     -31.41030000     -71.25740000
C      -46.88660000     -30.11610000     -71.64570000
C      -46.72250000     -32.34620000     -72.38910000
H      -46.78430000     -29.27340000     -70.95940000
C      -46.75060000     -31.66260000     -73.62690000
C      -46.43670000     -33.71130000     -72.55040000
C      -46.32800000     -34.05360000     -73.90990000
S      -46.94300000     -29.90440000     -73.39960000
S      -46.69840000     -32.72960000     -74.99760000
H      -46.15130000     -34.99750000     -74.41150000
