40
Properties=species:S:1:pos:R:3 #=T CELL(abcABC):=T 1.889726e+02=T 90.00000=T Traj:=T positionsangstrom=T Step:=T 0=T Bead:=T pbc="F F F"
C      -41.62930000     -32.51470000     -72.52560000
C      -41.97950000     -33.74800000     -71.97800000
C      -42.77650000     -34.59390000     -72.69420000
C      -43.38450000     -34.18800000     -73.90280000
C      -43.09490000     -32.92280000     -74.37910000
C      -42.19530000     -32.07730000     -73.74780000
H      -40.97320000     -31.92630000     -71.94640000
H      -42.94090000     -35.64560000     -72.36480000
H      -43.51490000     -32.65330000     -75.35140000
H      -42.05610000     -31.08030000     -74.00020000
C      -44.28340000     -35.17670000     -74.67770000
H      -44.49180000     -36.01850000     -74.06370000
H      -43.82410000     -35.50410000     -75.67340000
C      -41.37480000     -34.09710000     -70.59000000
H      -40.33500000     -34.24290000     -70.76050000
H      -41.33010000     -33.22290000     -69.98340000
S      -45.99510000     -34.45600000     -75.11180000
S      -42.26560000     -35.26990000     -69.59490000
C      -46.73580000     -34.36800000     -73.43560000
H      -47.78010000     -34.21040000     -73.65780000
H      -46.58610000     -35.29800000     -72.89360000
C      -43.64850000     -34.29710000     -68.91480000
H      -43.42430000     -33.18350000     -68.82930000
H      -43.72480000     -34.63310000     -67.83700000
C      -45.03530000     -34.41520000     -69.62380000
H      -44.88350000     -34.33880000     -70.68420000
H      -45.53260000     -35.37860000     -69.46840000
C      -46.29000000     -33.04420000     -72.63670000
H      -46.06080000     -32.25960000     -73.39120000
H      -45.29500000     -33.28330000     -72.19320000
C      -47.19220000     -32.54460000     -71.50200000
C      -48.32150000     -31.76130000     -71.81330000
C      -47.09460000     -32.76640000     -70.08740000
H      -48.58700000     -31.29530000     -72.72280000
C      -48.18480000     -32.09340000     -69.36560000
C      -46.09470000     -33.34050000     -69.19960000
C      -46.45100000     -33.17230000     -67.89550000
S      -49.31880000     -31.32000000     -70.45200000
S      -47.87950000     -32.16780000     -67.64630000
H      -45.93430000     -33.65320000     -67.03610000
