40
Properties=species:S:1:pos:R:3 #=T CELL(abcABC):=T 1.889726e+02=T 90.00000=T Traj:=T positionsangstrom=T Step:=T 0=T Bead:=T pbc="F F F"
C      -41.82680000     -33.14500000     -72.99240000
C      -42.62310000     -33.56910000     -71.95990000
C      -43.78600000     -34.27430000     -72.19310000
C      -44.18950000     -34.54990000     -73.50970000
C      -43.23360000     -34.32990000     -74.51800000
C      -42.03150000     -33.59550000     -74.30800000
H      -40.91010000     -32.61810000     -72.80750000
H      -44.38130000     -34.60140000     -71.36740000
H      -43.59130000     -34.47990000     -75.50920000
H      -41.40590000     -33.21670000     -75.11570000
C      -45.52420000     -35.13770000     -73.82400000
H      -45.92580000     -35.62500000     -72.93610000
H      -45.59270000     -35.82960000     -74.63180000
C      -42.46800000     -33.10750000     -70.58780000
H      -43.06710000     -33.62140000     -69.89140000
H      -41.44500000     -33.39480000     -70.35590000
S      -46.77410000     -33.86130000     -74.45960000
S      -42.56730000     -31.29260000     -70.44640000
C      -46.70200000     -32.37350000     -73.36760000
H      -45.74490000     -32.26730000     -72.85050000
H      -46.89210000     -31.49720000     -74.06530000
C      -44.20260000     -30.81420000     -71.05230000
H      -44.38280000     -31.46220000     -71.91960000
H      -44.15430000     -29.77420000     -71.40040000
C      -45.39660000     -30.80950000     -70.04490000
H      -45.09910000     -30.25470000     -69.11490000
H      -46.19990000     -30.39520000     -70.62930000
C      -47.75270000     -32.43330000     -72.30260000
H      -48.71720000     -32.66510000     -72.77170000
H      -47.71580000     -31.42960000     -71.85340000
C      -47.53190000     -33.40210000     -71.22120000
C      -48.19760000     -34.63290000     -71.22300000
C      -46.73700000     -33.13500000     -70.05580000
H      -48.90860000     -34.91620000     -71.99320000
C      -46.88950000     -34.24670000     -69.17870000
C      -45.85730000     -32.25780000     -69.46590000
C      -45.53440000     -32.51340000     -68.12390000
S      -47.93140000     -35.55630000     -69.74740000
S      -46.05170000     -34.10730000     -67.67180000
H      -44.82800000     -32.05570000     -67.47840000
