40
Properties=species:S:1:pos:R:3 #=T CELL(abcABC):=T 1.889726e+02=T 90.00000=T Traj:=T positionsangstrom=T Step:=T 0=T Bead:=T pbc="F F F"
C      -41.74240000     -33.48860000     -72.80010000
C      -42.70440000     -33.70980000     -71.77920000
C      -43.92460000     -34.33690000     -72.07970000
C      -44.29550000     -34.57990000     -73.41690000
C      -43.32110000     -34.38590000     -74.43540000
C      -42.05930000     -33.85580000     -74.09650000
H      -40.85620000     -33.03210000     -72.46680000
H      -44.67440000     -34.63910000     -71.29470000
H      -43.52900000     -34.61530000     -75.49850000
H      -41.23080000     -33.74010000     -74.85820000
C      -45.57720000     -35.15450000     -73.81310000
H      -46.19660000     -35.64390000     -73.02950000
H      -45.35030000     -35.81930000     -74.64550000
C      -42.52430000     -33.14740000     -70.37900000
H      -43.40640000     -33.51220000     -69.83250000
H      -41.51460000     -33.35750000     -69.83330000
S      -46.80350000     -33.96780000     -74.63800000
S      -42.57960000     -31.28870000     -70.18310000
C      -46.60850000     -32.42430000     -73.64290000
H      -45.58510000     -32.56450000     -73.26490000
H      -46.82800000     -31.61710000     -74.31250000
C      -44.23530000     -30.80840000     -71.01760000
H      -44.40470000     -31.54070000     -71.86310000
H      -44.12260000     -29.82990000     -71.47300000
C      -45.35090000     -30.75230000     -69.92440000
H      -45.03450000     -30.14500000     -69.04610000
H      -46.21240000     -30.20550000     -70.44850000
C      -47.57740000     -32.27460000     -72.47560000
H      -48.59800000     -32.18220000     -72.80270000
H      -47.35850000     -31.30450000     -72.05670000
C      -47.58590000     -33.24210000     -71.28140000
C      -48.30710000     -34.42240000     -71.24050000
C      -46.70440000     -33.03520000     -70.11690000
H      -48.91050000     -34.77360000     -72.04450000
C      -46.83390000     -34.18620000     -69.30480000
C      -45.78340000     -32.12830000     -69.44600000
C      -45.49210000     -32.46780000     -68.17520000
S      -47.83760000     -35.43860000     -69.92260000
S      -46.05520000     -34.08410000     -67.78590000
H      -44.98620000     -31.92610000     -67.41390000
