40
Properties=species:S:1:pos:R:3 #=T CELL(abcABC):=T 1.889726e+02=T 90.00000=T Traj:=T positionsangstrom=T Step:=T 0=T Bead:=T pbc="F F F"
C      -41.88760000     -33.22520000     -73.10770000
C      -42.78240000     -33.40800000     -72.05650000
C      -43.96900000     -34.11280000     -72.27180000
C      -44.26030000     -34.49520000     -73.54600000
C      -43.41440000     -34.19960000     -74.59920000
C      -42.14380000     -33.56750000     -74.37430000
H      -40.99390000     -32.71150000     -72.92700000
H      -44.65750000     -34.28690000     -71.45520000
H      -43.67050000     -34.72820000     -75.46550000
H      -41.33170000     -33.60530000     -75.13590000
C      -45.51600000     -35.31080000     -73.82430000
H      -45.96960000     -35.90430000     -72.96640000
H      -45.37070000     -35.96540000     -74.72660000
C      -42.45080000     -33.00680000     -70.59400000
H      -43.22320000     -33.47500000     -69.91100000
H      -41.43830000     -33.29080000     -70.25260000
S      -46.89580000     -34.19330000     -74.38810000
S      -42.59240000     -31.14160000     -70.20710000
C      -46.60130000     -32.54270000     -73.52650000
H      -45.54420000     -32.57260000     -73.12520000
H      -46.79840000     -31.74380000     -74.11620000
C      -44.21230000     -30.85420000     -70.92690000
H      -44.55360000     -31.61360000     -71.65000000
H      -44.07660000     -29.88450000     -71.39410000
C      -45.39320000     -30.85100000     -69.98240000
H      -45.13110000     -30.21440000     -69.10640000
H      -46.29090000     -30.34770000     -70.33460000
C      -47.52850000     -32.32120000     -72.32590000
H      -48.58060000     -32.29030000     -72.63910000
H      -47.41280000     -31.29830000     -71.97010000
C      -47.48910000     -33.27170000     -71.17870000
C      -48.14990000     -34.49920000     -71.29390000
C      -46.82250000     -33.13730000     -69.91290000
H      -48.61200000     -34.79530000     -72.20970000
C      -46.98430000     -34.22740000     -69.09960000
C      -45.73090000     -32.21230000     -69.37800000
C      -45.24320000     -32.56760000     -68.16050000
S      -47.83220000     -35.52260000     -69.95490000
S      -45.99880000     -34.13110000     -67.67510000
H      -44.34010000     -32.09070000     -67.73820000
