40
Properties=species:S:1:pos:R:3 #=T CELL(abcABC):=T 1.889726e+02=T 90.00000=T Traj:=T positionsangstrom=T Step:=T 0=T Bead:=T pbc="F F F"
C      -41.92870000     -33.10600000     -72.98520000
C      -42.79640000     -33.42620000     -71.88260000
C      -43.96880000     -34.07790000     -72.22730000
C      -44.29900000     -34.57760000     -73.50970000
C      -43.37440000     -34.31150000     -74.55940000
C      -42.19220000     -33.54290000     -74.26480000
H      -41.04160000     -32.45490000     -72.85420000
H      -44.68930000     -34.40320000     -71.49490000
H      -43.69040000     -34.40150000     -75.58740000
H      -41.61740000     -33.16610000     -75.09410000
C      -45.60440000     -35.28980000     -73.65610000
H      -45.82370000     -35.68090000     -72.72730000
H      -45.37760000     -36.13110000     -74.26620000
C      -42.42770000     -33.02400000     -70.50050000
H      -43.06200000     -33.65290000     -69.82820000
H      -41.41120000     -33.12580000     -70.25850000
S      -47.04920000     -34.33780000     -74.37920000
S      -42.70920000     -31.20600000     -70.09990000
C      -46.76270000     -32.64670000     -73.79530000
H      -45.72940000     -32.31740000     -74.02360000
H      -47.19770000     -32.03940000     -74.61290000
C      -44.38380000     -30.71060000     -70.85140000
H      -44.60790000     -31.34440000     -71.76660000
H      -44.10970000     -29.80530000     -71.31160000
C      -45.51680000     -30.75420000     -69.89470000
H      -45.33690000     -30.02890000     -69.15070000
H      -46.47330000     -30.36330000     -70.46020000
C      -47.39510000     -32.26740000     -72.39560000
H      -48.41670000     -32.04880000     -72.73060000
H      -46.94220000     -31.32190000     -72.09370000
C      -47.28380000     -33.26920000     -71.31980000
C      -48.11900000     -34.39430000     -71.33550000
C      -46.50860000     -33.19500000     -70.11380000
H      -48.90190000     -34.71140000     -72.07060000
C      -46.61720000     -34.31220000     -69.38090000
C      -45.78950000     -32.13410000     -69.31450000
C      -45.37360000     -32.59310000     -68.13220000
S      -47.87370000     -35.36640000     -69.91110000
S      -45.73260000     -34.20490000     -67.83290000
H      -44.95600000     -31.91290000     -67.33810000
