40
Properties=species:S:1:pos:R:3 #=T CELL(abcABC):=T 1.889726e+02=T 90.00000=T Traj:=T positionsangstrom=T Step:=T 0=T Bead:=T pbc="F F F"
C      -41.98890000     -33.13980000     -72.79740000
C      -42.79340000     -33.34880000     -71.70650000
C      -43.93480000     -34.11790000     -71.84940000
C      -44.36270000     -34.57800000     -73.12700000
C      -43.55860000     -34.29240000     -74.24620000
C      -42.37330000     -33.60140000     -74.06030000
H      -41.13410000     -32.45680000     -72.62500000
H      -44.46500000     -34.30370000     -70.95160000
H      -43.72090000     -34.75750000     -75.25360000
H      -41.78440000     -33.50810000     -75.01530000
C      -45.62590000     -35.44500000     -73.39140000
H      -46.09840000     -35.69210000     -72.43910000
H      -45.51550000     -36.21730000     -74.05920000
C      -42.39690000     -32.82630000     -70.31730000
H      -42.96990000     -33.19380000     -69.45450000
H      -41.32800000     -33.08090000     -70.07380000
S      -46.95680000     -34.34560000     -74.27860000
S      -42.57970000     -30.93890000     -70.35470000
C      -46.73200000     -32.62340000     -73.55370000
H      -45.77250000     -32.55010000     -73.13610000
H      -46.93050000     -31.93070000     -74.37430000
C      -44.21030000     -30.66410000     -71.09580000
H      -44.26630000     -31.27370000     -71.95720000
H      -44.25840000     -29.60120000     -71.38450000
C      -45.56490000     -30.77280000     -70.12180000
H      -45.31540000     -29.94900000     -69.44830000
H      -46.39300000     -30.43880000     -70.70370000
C      -47.78370000     -32.36870000     -72.48880000
H      -48.79390000     -32.51530000     -72.92580000
H      -47.67120000     -31.30050000     -72.23940000
C      -47.55080000     -33.24680000     -71.32320000
C      -48.17300000     -34.53460000     -71.42210000
C      -46.72450000     -33.12300000     -70.14150000
H      -48.71140000     -34.80070000     -72.26050000
C      -46.64600000     -34.36640000     -69.39860000
C      -45.87900000     -32.13560000     -69.53630000
C      -45.31830000     -32.52980000     -68.37270000
S      -47.64730000     -35.58330000     -70.11380000
S      -45.69650000     -34.19390000     -67.96010000
H      -44.46830000     -32.06530000     -67.90230000
