40
Properties=species:S:1:pos:R:3 #=T CELL(abcABC):=T 1.889726e+02=T 90.00000=T Traj:=T positionsangstrom=T Step:=T 0=T Bead:=T pbc="F F F"
C      -42.24890000     -30.81110000     -70.52790000
C      -43.22700000     -31.07460000     -69.59130000
C      -44.55790000     -30.74030000     -69.93820000
C      -44.85800000     -30.27470000     -71.26280000
C      -43.79910000     -30.14650000     -72.19820000
C      -42.47740000     -30.50840000     -71.84870000
H      -41.23500000     -31.15260000     -70.29240000
H      -45.36470000     -30.98040000     -69.25420000
H      -44.08280000     -29.80500000     -73.25730000
H      -41.65420000     -30.35660000     -72.51220000
C      -46.24080000     -29.74230000     -71.60130000
H      -46.41200000     -29.69540000     -72.62570000
H      -46.43380000     -28.87540000     -71.03290000
C      -42.89810000     -31.63120000     -68.20800000
H      -41.85620000     -31.77130000     -68.08160000
H      -43.23250000     -30.86790000     -67.38880000
S      -47.65190000     -30.82010000     -70.89640000
S      -43.90020000     -33.10930000     -67.80390000
C      -47.29700000     -32.33600000     -72.04030000
H      -47.60200000     -32.13110000     -73.09400000
H      -46.26600000     -32.44690000     -72.10220000
C      -43.81850000     -34.18570000     -69.27790000
H      -43.35120000     -35.14140000     -68.93110000
H      -43.19840000     -33.69530000     -69.97090000
C      -45.19470000     -34.51250000     -69.79330000
H      -45.84150000     -35.04300000     -69.00370000
H      -45.67210000     -33.52180000     -70.07440000
C      -48.05810000     -33.62290000     -71.52800000
H      -49.09130000     -33.44630000     -71.71600000
H      -47.73650000     -33.76590000     -70.52820000
C      -47.51370000     -34.77940000     -72.36650000
C      -48.09240000     -35.16840000     -73.55670000
C      -46.18190000     -35.41810000     -72.09620000
H      -48.91570000     -34.72420000     -74.09660000
C      -45.82920000     -36.16210000     -73.19240000
C      -45.15730000     -35.37760000     -71.06510000
C      -44.08070000     -36.13280000     -71.36850000
S      -46.98940000     -36.24680000     -74.46940000
S      -44.32400000     -36.97430000     -73.01260000
H      -43.15000000     -36.41380000     -70.91790000
