40
Properties=species:S:1:pos:R:3 #=T CELL(abcABC):=T 1.889726e+02=T 90.00000=T Traj:=T positionsangstrom=T Step:=T 0=T Bead:=T pbc="F F F"
C      -42.52480000     -31.44900000     -70.87640000
C      -43.24060000     -31.23180000     -69.71080000
C      -44.44250000     -30.54200000     -69.81820000
C      -44.96140000     -30.04180000     -71.03790000
C      -44.17440000     -30.18250000     -72.17410000
C      -42.96270000     -30.94750000     -72.06520000
H      -41.54620000     -32.02140000     -70.86400000
H      -45.10760000     -30.19570000     -68.98140000
H      -44.50540000     -29.87470000     -73.20300000
H      -42.34770000     -30.98780000     -73.01440000
C      -46.22870000     -29.33490000     -71.06720000
H      -46.39170000     -28.62360000     -71.86150000
H      -46.35740000     -28.84950000     -70.13730000
C      -42.63830000     -31.76030000     -68.44120000
H      -41.61740000     -32.06420000     -68.74590000
H      -42.39300000     -30.91850000     -67.67590000
S      -47.56020000     -30.62540000     -71.12170000
S      -43.52460000     -33.28530000     -67.71370000
C      -47.05990000     -31.96050000     -72.23560000
H      -47.40350000     -31.80570000     -73.35970000
H      -45.99340000     -32.16990000     -72.16070000
C      -43.65640000     -34.45050000     -69.19350000
H      -43.74160000     -35.40710000     -68.65190000
H      -42.60210000     -34.40250000     -69.63450000
C      -44.81970000     -34.12360000     -70.14370000
H      -45.69960000     -33.79650000     -69.62450000
H      -44.51490000     -33.19610000     -70.74000000
C      -47.77620000     -33.27260000     -71.65060000
H      -48.83470000     -33.07090000     -71.64690000
H      -47.50920000     -33.43190000     -70.60720000
C      -47.36580000     -34.51410000     -72.40100000
C      -48.12200000     -35.04100000     -73.43150000
C      -46.17030000     -35.28640000     -72.12420000
H      -49.02870000     -34.63140000     -73.81140000
C      -46.04500000     -36.31090000     -73.03560000
C      -45.03520000     -35.23930000     -71.19940000
C      -44.09710000     -36.17940000     -71.48860000
S      -47.37830000     -36.37410000     -74.22950000
S      -44.55630000     -37.21360000     -72.85390000
H      -43.10670000     -36.33600000     -70.99520000
