40
Properties=species:S:1:pos:R:3 #=T CELL(abcABC):=T 1.889726e+02=T 90.00000=T Traj:=T positionsangstrom=T Step:=T 0=T Bead:=T pbc="F F F"
C      -41.64460000     -33.28650000     -72.72410000
C      -42.59400000     -33.30790000     -71.69080000
C      -43.84110000     -33.83830000     -71.94240000
C      -44.15880000     -34.44810000     -73.19170000
C      -43.24900000     -34.49950000     -74.23220000
C      -41.97920000     -33.90860000     -73.94770000
H      -40.58800000     -33.04960000     -72.48920000
H      -44.50980000     -33.94260000     -71.04160000
H      -43.47170000     -34.87270000     -75.21760000
H      -41.26980000     -33.86660000     -74.71760000
C      -45.48380000     -35.17670000     -73.34240000
H      -45.94670000     -35.17880000     -72.36800000
H      -45.52980000     -36.24810000     -73.55220000
C      -42.27560000     -32.66090000     -70.32940000
H      -42.85480000     -33.11870000     -69.52800000
H      -41.26080000     -32.78320000     -70.13210000
S      -46.68300000     -34.31990000     -74.56680000
S      -42.71740000     -30.85950000     -70.28520000
C      -46.78770000     -32.68690000     -73.66790000
H      -45.75750000     -32.33940000     -73.41730000
H      -47.12120000     -32.04960000     -74.48750000
C      -44.36180000     -30.73020000     -71.09210000
H      -44.39940000     -31.48920000     -71.86080000
H      -44.34570000     -29.74520000     -71.52560000
C      -45.67210000     -30.82920000     -70.27780000
H      -45.53000000     -30.14330000     -69.51290000
H      -46.45790000     -30.32990000     -70.88400000
C      -47.83060000     -32.66670000     -72.55430000
H      -48.79510000     -32.75700000     -73.05440000
H      -47.78600000     -31.61220000     -72.24760000
C      -47.64640000     -33.53750000     -71.32720000
C      -48.39420000     -34.63870000     -71.17590000
C      -46.77360000     -33.20030000     -70.20710000
H      -49.12100000     -35.04050000     -71.90110000
C      -46.80870000     -34.33910000     -69.38610000
C      -45.96630000     -32.16800000     -69.69930000
C      -45.31820000     -32.46910000     -68.51100000
S      -48.05770000     -35.53150000     -69.76170000
S      -45.74090000     -34.07340000     -67.97250000
H      -44.61500000     -31.81980000     -67.94880000
