40
Properties=species:S:1:pos:R:3 #=T CELL(abcABC):=T 1.889726e+02=T 90.00000=T Traj:=T positionsangstrom=T Step:=T 0=T Bead:=T pbc="F F F"
C      -42.50790000     -31.34350000     -70.69150000
C      -43.39020000     -31.12390000     -69.63730000
C      -44.60220000     -30.53180000     -69.90640000
C      -44.93040000     -30.03970000     -71.16790000
C      -44.04510000     -30.31040000     -72.26450000
C      -42.79180000     -30.87980000     -72.00510000
H      -41.59300000     -31.84590000     -70.41370000
H      -45.49960000     -30.59880000     -69.29430000
H      -44.22020000     -30.03490000     -73.27520000
H      -42.14130000     -31.17150000     -72.85960000
C      -46.25410000     -29.45510000     -71.46790000
H      -46.33820000     -29.08690000     -72.47800000
H      -46.34640000     -28.59490000     -70.80490000
C      -43.10870000     -31.56330000     -68.22200000
H      -41.97560000     -31.53180000     -67.90270000
H      -43.66420000     -30.90410000     -67.54820000
S      -47.55300000     -30.63850000     -70.92350000
S      -43.89970000     -33.16970000     -67.82840000
C      -47.00970000     -32.09210000     -71.93730000
H      -47.25180000     -31.93920000     -72.97210000
H      -45.89970000     -32.32870000     -71.71740000
C      -43.56280000     -34.11880000     -69.39470000
H      -42.90740000     -34.98830000     -69.19800000
H      -43.10830000     -33.47470000     -70.17000000
C      -44.95220000     -34.57990000     -69.89920000
H      -45.41250000     -35.31320000     -69.17590000
H      -45.60710000     -33.69140000     -70.07660000
C      -47.76800000     -33.34210000     -71.49460000
H      -48.81080000     -33.12780000     -71.71210000
H      -47.62920000     -33.54810000     -70.46210000
C      -47.23030000     -34.56890000     -72.29460000
C      -47.95500000     -35.02670000     -73.32480000
C      -46.08970000     -35.37140000     -72.08850000
H      -48.88150000     -34.56780000     -73.65700000
C      -45.95510000     -36.35220000     -73.09620000
C      -44.91900000     -35.44200000     -71.22740000
C      -43.93600000     -36.30950000     -71.60140000
S      -47.16480000     -36.25980000     -74.31510000
S      -44.46690000     -37.16120000     -73.01960000
H      -43.07110000     -36.65450000     -71.11050000
