40
Properties=species:S:1:pos:R:3 #=T CELL(abcABC):=T 1.889726e+02=T 90.00000=T Traj:=T positionsangstrom=T Step:=T 0=T Bead:=T pbc="F F F"
C      -43.21450000     -34.22500000     -74.17790000
C      -42.92320000     -33.04120000     -73.55060000
C      -42.33480000     -33.07750000     -72.31940000
C      -41.95430000     -34.26500000     -71.71960000
C      -42.25740000     -35.45020000     -72.32420000
C      -42.83670000     -35.44930000     -73.59190000
H      -43.81380000     -34.24300000     -75.06460000
H      -41.83340000     -32.18130000     -71.94890000
H      -41.91840000     -36.35800000     -71.91320000
H      -43.23280000     -36.36720000     -74.04690000
C      -41.22760000     -34.19170000     -70.40190000
H      -40.62970000     -33.30380000     -70.35690000
H      -40.50560000     -34.99220000     -70.35430000
C      -43.22610000     -31.70370000     -74.12640000
H      -42.92640000     -30.95980000     -73.30970000
H      -42.52710000     -31.41440000     -74.90450000
S      -42.23260000     -34.41710000     -68.88060000
S      -44.96310000     -31.41490000     -74.64770000
C      -43.67290000     -33.27250000     -69.06700000
H      -43.98860000     -33.21490000     -68.05000000
H      -43.44660000     -32.14570000     -69.34710000
C      -45.88650000     -31.86780000     -73.11370000
H      -46.73290000     -31.16260000     -73.04970000
H      -45.19920000     -31.53060000     -72.33940000
C      -46.26720000     -33.33010000     -72.91920000
H      -46.64820000     -33.75260000     -73.88250000
H      -45.30570000     -33.87140000     -72.72950000
C      -44.90140000     -33.84280000     -69.93170000
H      -44.79670000     -34.88760000     -70.16390000
H      -44.89870000     -33.45450000     -70.92320000
C      -46.24650000     -33.59930000     -69.43290000
C      -46.75250000     -33.59070000     -68.13220000
C      -47.31620000     -33.48940000     -70.41270000
H      -46.20430000     -33.64750000     -67.17340000
C      -48.57910000     -33.25260000     -69.88580000
C      -47.38430000     -33.42680000     -71.88180000
C      -48.73330000     -33.30820000     -72.26930000
S      -48.50130000     -33.37460000     -68.16120000
S      -49.89470000     -33.00790000     -71.00700000
H      -49.06170000     -33.25200000     -73.31140000
