40
Properties=species:S:1:pos:R:3 #=T CELL(abcABC):=T 1.889726e+02=T 90.00000=T Traj:=T positionsangstrom=T Step:=T 0=T Bead:=T pbc="F F F"
C      -42.38170000     -31.53350000     -71.79740000
C      -42.75020000     -31.13440000     -70.49130000
C      -43.91830000     -30.34430000     -70.39570000
C      -44.68990000     -29.95720000     -71.50890000
C      -44.32420000     -30.40810000     -72.76980000
C      -43.20790000     -31.20570000     -72.90720000
H      -41.66640000     -32.28070000     -72.00490000
H      -44.21280000     -29.88960000     -69.45480000
H      -45.05520000     -30.20890000     -73.58250000
H      -42.89010000     -31.41210000     -73.92250000
C      -46.06470000     -29.34710000     -71.25530000
H      -46.52190000     -28.83040000     -72.15800000
H      -45.97160000     -28.66500000     -70.41720000
C      -41.98740000     -31.58480000     -69.30020000
H      -41.06660000     -32.08440000     -69.71700000
H      -41.65710000     -30.76360000     -68.64440000
S      -47.34360000     -30.58910000     -70.77220000
S      -42.99910000     -32.74980000     -68.28470000
C      -47.17110000     -32.06390000     -71.79810000
H      -47.49350000     -31.90710000     -72.83290000
H      -46.08780000     -32.32540000     -71.83120000
C      -43.41790000     -34.04970000     -69.41250000
H      -43.55090000     -34.88010000     -68.70370000
H      -42.59500000     -34.38750000     -70.06500000
C      -44.69140000     -33.93590000     -70.23180000
H      -45.49070000     -33.59150000     -69.57180000
H      -44.52300000     -33.21880000     -71.01560000
C      -47.94250000     -33.30400000     -71.22740000
H      -49.05010000     -33.03330000     -71.18080000
H      -47.52960000     -33.43710000     -70.21350000
C      -47.66160000     -34.53680000     -72.06610000
C      -48.40520000     -35.12350000     -73.01680000
C      -46.41680000     -35.28960000     -71.81930000
H      -49.37780000     -34.77460000     -73.38130000
C      -46.39580000     -36.54880000     -72.55300000
C      -45.23640000     -35.21090000     -70.94510000
C      -44.44610000     -36.32220000     -70.99880000
S      -47.71140000     -36.56620000     -73.71370000
S      -45.06030000     -37.56820000     -72.13730000
H      -43.45820000     -36.50620000     -70.57710000
