40
Properties=species:S:1:pos:R:3 #=T CELL(abcABC):=T 1.889726e+02=T 90.00000=T Traj:=T positionsangstrom=T Step:=T 0=T Bead:=T pbc="F F F"
C      -42.31300000     -31.35550000     -71.71270000
C      -42.77250000     -31.13830000     -70.42210000
C      -44.01280000     -30.48960000     -70.30250000
C      -44.75960000     -30.08970000     -71.47840000
C      -44.25660000     -30.44520000     -72.72620000
C      -43.08260000     -31.15570000     -72.83460000
H      -41.32550000     -31.84710000     -71.78980000
H      -44.50480000     -30.36700000     -69.36940000
H      -44.98760000     -30.29400000     -73.61790000
H      -42.73290000     -31.35890000     -73.83530000
C      -46.08550000     -29.47970000     -71.32930000
H      -46.43300000     -28.93490000     -72.24830000
H      -46.04260000     -28.71430000     -70.62620000
C      -41.98870000     -31.69400000     -69.25850000
H      -40.91550000     -31.98980000     -69.44850000
H      -41.80530000     -30.88890000     -68.60490000
S      -47.45080000     -30.62700000     -70.72810000
S      -42.95470000     -32.89650000     -68.23840000
C      -47.24730000     -31.94500000     -72.02590000
H      -47.68030000     -31.73430000     -73.02950000
H      -46.20360000     -32.11290000     -72.20160000
C      -43.49900000     -34.29110000     -69.41480000
H      -43.57050000     -35.12210000     -68.74500000
H      -42.64840000     -34.43260000     -70.09740000
C      -44.81330000     -34.02400000     -70.02530000
H      -45.55690000     -33.77520000     -69.25160000
H      -44.68070000     -33.04990000     -70.59660000
C      -48.01620000     -33.13300000     -71.42760000
H      -49.16580000     -33.10960000     -71.47420000
H      -47.78320000     -33.36460000     -70.43810000
C      -47.53350000     -34.39850000     -72.12040000
C      -48.38440000     -34.98260000     -72.98170000
C      -46.31020000     -35.18170000     -71.81240000
H      -49.36870000     -34.58180000     -73.28010000
C      -46.32680000     -36.37100000     -72.61280000
C      -45.15330000     -35.18590000     -70.91950000
C      -44.35140000     -36.29750000     -71.13420000
S      -47.80800000     -36.56970000     -73.56720000
S      -44.95530000     -37.46350000     -72.35820000
H      -43.48100000     -36.75480000     -70.60140000
