40
Properties=species:S:1:pos:R:3 #=T CELL(abcABC):=T 1.889726e+02=T 90.00000=T Traj:=T positionsangstrom=T Step:=T 0=T Bead:=T pbc="F F F"
C      -41.54260000     -32.85460000     -72.81330000
C      -41.85440000     -34.08200000     -72.18940000
C      -42.66480000     -34.96710000     -72.92190000
C      -43.39220000     -34.60100000     -74.03840000
C      -43.16920000     -33.34370000     -74.61550000
C      -42.23380000     -32.46590000     -73.95430000
H      -40.84300000     -32.14730000     -72.41330000
H      -42.94740000     -35.92820000     -72.52300000
H      -43.67690000     -33.10370000     -75.52220000
H      -42.04900000     -31.41060000     -74.49210000
C      -44.52050000     -35.39990000     -74.58500000
H      -44.78490000     -36.24930000     -73.88400000
H      -44.21000000     -35.73810000     -75.59660000
C      -41.18920000     -34.41700000     -70.95380000
H      -40.45760000     -35.18170000     -71.08750000
H      -40.62690000     -33.55270000     -70.56400000
S      -46.09870000     -34.50280000     -74.77070000
S      -42.28740000     -35.11210000     -69.63560000
C      -46.73450000     -34.25530000     -73.01690000
H      -47.81910000     -34.39510000     -72.94700000
H      -46.10100000     -34.92120000     -72.39810000
C      -43.57420000     -33.82750000     -69.22540000
H      -43.20210000     -32.86700000     -69.70720000
H      -43.53230000     -33.70590000     -68.15410000
C      -45.01950000     -34.17270000     -69.79120000
H      -44.95140000     -33.96840000     -70.79040000
H      -45.18690000     -35.24340000     -69.67670000
C      -46.55190000     -32.79300000     -72.68250000
H      -46.84650000     -32.21760000     -73.58240000
H      -45.44470000     -32.57960000     -72.63290000
C      -47.33500000     -32.33310000     -71.47990000
C      -48.43270000     -31.51110000     -71.64570000
C      -47.12050000     -32.59170000     -70.03920000
H      -48.80420000     -31.30370000     -72.63230000
C      -48.06710000     -31.95860000     -69.25030000
C      -46.13290000     -33.29590000     -69.28670000
C      -46.29890000     -33.12580000     -67.94740000
S      -49.26420000     -31.04400000     -70.18760000
S      -47.78500000     -32.21880000     -67.56880000
H      -45.74320000     -33.58300000     -67.20210000
