40
Properties=species:S:1:pos:R:3 #=T CELL(abcABC):=T 1.889726e+02=T 90.00000=T Traj:=T positionsangstrom=T Step:=T 0=T Bead:=T pbc="F F F"
C      -43.09610000     -34.23650000     -74.20440000
C      -42.74520000     -33.01250000     -73.64620000
C      -42.07960000     -33.10280000     -72.37980000
C      -41.90040000     -34.28500000     -71.72720000
C      -42.18750000     -35.45940000     -72.38680000
C      -42.89940000     -35.48830000     -73.64580000
H      -43.52120000     -34.13940000     -75.22090000
H      -41.98030000     -32.15720000     -71.82490000
H      -42.01620000     -36.42450000     -71.88040000
H      -42.93050000     -36.40380000     -74.27690000
C      -41.15750000     -34.20760000     -70.37420000
H      -40.75700000     -33.20420000     -70.21510000
H      -40.41940000     -35.01310000     -70.29400000
C      -43.08160000     -31.70680000     -74.33640000
H      -42.70090000     -30.87200000     -73.73650000
H      -42.70150000     -31.68170000     -75.31340000
S      -42.27460000     -34.47920000     -68.89540000
S      -44.91840000     -31.43630000     -74.61010000
C      -43.76250000     -33.42610000     -69.08780000
H      -44.11460000     -33.17480000     -68.05360000
H      -43.58470000     -32.54080000     -69.61820000
C      -45.81700000     -31.71950000     -72.97880000
H      -46.58680000     -30.97780000     -72.95740000
H      -45.21220000     -31.59760000     -72.01870000
C      -46.46720000     -33.09270000     -72.94960000
H      -47.00020000     -33.33430000     -73.86080000
H      -45.71580000     -33.83050000     -72.89650000
C      -44.91930000     -34.14660000     -69.91060000
H      -44.90100000     -35.24370000     -69.82580000
H      -44.70210000     -33.80700000     -70.96270000
C      -46.28090000     -33.62000000     -69.58650000
C      -46.66900000     -33.68520000     -68.22740000
C      -47.41880000     -33.30930000     -70.47510000
H      -46.12500000     -33.84060000     -67.32780000
C      -48.59950000     -33.26010000     -69.82170000
C      -47.61160000     -33.20040000     -71.86120000
C      -48.93910000     -33.01460000     -72.26770000
S      -48.36860000     -33.34680000     -68.08100000
S      -50.04350000     -33.09100000     -70.86000000
H      -49.25660000     -32.97380000     -73.28160000
