40
Properties=species:S:1:pos:R:3 #=T CELL(abcABC):=T 1.889726e+02=T 90.00000=T Traj:=T positionsangstrom=T Step:=T 0=T Bead:=T pbc="F F F"
C      -42.52540000     -34.21210000     -73.83950000
C      -42.91390000     -32.85820000     -73.68840000
C      -42.66610000     -32.12340000     -72.51380000
C      -41.93720000     -32.79370000     -71.45180000
C      -41.55010000     -34.12880000     -71.62160000
C      -41.83390000     -34.85920000     -72.79550000
H      -42.65730000     -34.61340000     -74.78620000
H      -43.29650000     -31.18470000     -72.36470000
H      -40.98880000     -34.62910000     -70.84900000
H      -41.42750000     -35.83750000     -72.87340000
C      -41.71110000     -32.21530000     -70.10970000
H      -42.34040000     -31.30040000     -69.90910000
H      -40.69470000     -31.95020000     -69.87140000
C      -43.67990000     -32.21940000     -74.84810000
H      -43.81440000     -31.13280000     -74.70470000
H      -43.09370000     -32.34090000     -75.73180000
S      -42.10710000     -33.47930000     -68.81910000
S      -45.25940000     -33.02140000     -75.31130000
C      -43.87770000     -33.36950000     -68.54530000
H      -44.00900000     -34.15340000     -67.82930000
H      -43.96940000     -32.39470000     -68.07700000
C      -46.26120000     -32.80330000     -73.75620000
H      -47.27320000     -32.57530000     -74.03000000
H      -45.92200000     -31.94280000     -73.19210000
C      -46.30960000     -34.00700000     -72.86080000
H      -46.54130000     -34.94180000     -73.41520000
H      -45.36280000     -34.14250000     -72.38490000
C      -44.75060000     -33.55400000     -69.82840000
H      -44.43390000     -34.48140000     -70.27790000
H      -44.49750000     -32.64900000     -70.47070000
C      -46.24240000     -33.54060000     -69.55090000
C      -46.68240000     -33.35970000     -68.29150000
C      -47.34220000     -33.72420000     -70.43930000
H      -46.06640000     -33.08600000     -67.45310000
C      -48.58290000     -33.58480000     -69.79330000
C      -47.48440000     -33.85400000     -71.85760000
C      -48.82910000     -33.82890000     -72.30550000
S      -48.38390000     -33.39070000     -68.10590000
S      -49.98230000     -33.69660000     -70.93770000
H      -49.16510000     -33.57970000     -73.29440000
