40
Properties=species:S:1:pos:R:3 #=T CELL(abcABC):=T 1.889726e+02=T 90.00000=T Traj:=T positionsangstrom=T Step:=T 0=T Bead:=T pbc="F F F"
C      -42.68830000     -34.25140000     -73.88610000
C      -43.05080000     -32.94980000     -73.63590000
C      -42.74500000     -32.32610000     -72.40610000
C      -42.17820000     -33.11790000     -71.41910000
C      -41.81310000     -34.46020000     -71.60860000
C      -42.03250000     -34.97210000     -72.91710000
H      -43.02320000     -34.67380000     -74.80110000
H      -42.74600000     -31.25250000     -72.25780000
H      -41.45550000     -35.04530000     -70.75700000
H      -41.74590000     -36.02300000     -73.19060000
C      -41.76130000     -32.37550000     -70.14240000
H      -42.40830000     -31.51420000     -70.08690000
H      -40.69850000     -31.97220000     -70.05340000
C      -43.52310000     -32.11820000     -74.75290000
H      -43.69150000     -31.02240000     -74.55660000
H      -42.89600000     -32.20890000     -75.61680000
S      -42.06080000     -33.37270000     -68.64890000
S      -45.18320000     -32.84940000     -75.35020000
C      -43.90760000     -33.56820000     -68.50710000
H      -44.07590000     -34.56220000     -68.13890000
H      -44.31650000     -32.85880000     -67.76000000
C      -46.18370000     -32.65590000     -73.81640000
H      -47.13500000     -32.32520000     -74.23670000
H      -45.75280000     -31.89250000     -73.11600000
C      -46.39370000     -33.92600000     -73.04960000
H      -46.68150000     -34.63890000     -73.84370000
H      -45.43460000     -34.28920000     -72.68010000
C      -44.68750000     -33.62280000     -69.85100000
H      -44.45380000     -34.57170000     -70.37720000
H      -44.42680000     -32.90620000     -70.57820000
C      -46.14040000     -33.50040000     -69.51440000
C      -46.66340000     -33.44220000     -68.28430000
C      -47.22480000     -33.58540000     -70.48070000
H      -46.05660000     -33.28200000     -67.35140000
C      -48.46950000     -33.36400000     -69.86330000
C      -47.40200000     -33.80760000     -71.92950000
C      -48.73550000     -33.98480000     -72.24900000
S      -48.41650000     -33.29540000     -68.12500000
S      -49.89690000     -33.62730000     -70.93280000
H      -49.12230000     -34.17340000     -73.26040000
