40
Properties=species:S:1:pos:R:3 #=T CELL(abcABC):=T 1.889726e+02=T 90.00000=T Traj:=T positionsangstrom=T Step:=T 0=T Bead:=T pbc="F F F"
C      -42.29510000     -31.59910000     -72.32010000
C      -42.81000000     -31.43790000     -71.02410000
C      -44.07690000     -30.82920000     -70.83920000
C      -44.85960000     -30.27510000     -71.94330000
C      -44.36080000     -30.49530000     -73.22880000
C      -43.14360000     -31.11250000     -73.37380000
H      -41.22670000     -31.84390000     -72.43600000
H      -44.51630000     -30.90220000     -69.85420000
H      -44.89060000     -29.97720000     -74.14270000
H      -42.84490000     -31.21170000     -74.41960000
C      -46.13140000     -29.47500000     -71.65280000
H      -46.49090000     -29.02820000     -72.60520000
H      -45.98840000     -28.54360000     -71.02650000
C      -41.93690000     -31.65240000     -69.74890000
H      -41.01200000     -32.26660000     -69.92360000
H      -41.69690000     -30.67990000     -69.25550000
S      -47.50800000     -30.47950000     -70.89370000
S      -42.83080000     -32.56930000     -68.43320000
C      -47.19280000     -32.09810000     -71.72710000
H      -47.58800000     -32.01390000     -72.76830000
H      -46.10390000     -32.21270000     -71.80000000
C      -43.37800000     -34.11430000     -69.27510000
H      -43.12050000     -34.98190000     -68.68990000
H      -42.89750000     -34.09080000     -70.24920000
C      -44.88050000     -34.20020000     -69.52270000
H      -45.59840000     -34.34000000     -68.67490000
H      -45.28510000     -33.31350000     -70.07760000
C      -47.79010000     -33.26620000     -70.85500000
H      -48.89290000     -33.17610000     -70.78360000
H      -47.45620000     -33.30770000     -69.87530000
C      -47.53920000     -34.51630000     -71.60320000
C      -48.32550000     -34.89570000     -72.64370000
C      -46.42250000     -35.34720000     -71.44700000
H      -49.15870000     -34.31930000     -73.09920000
C      -46.38470000     -36.40070000     -72.32130000
C      -45.26390000     -35.32670000     -70.50840000
C      -44.43070000     -36.37720000     -70.73590000
S      -47.76640000     -36.38810000     -73.39290000
S      -44.96900000     -37.45440000     -72.05880000
H      -43.36490000     -36.40600000     -70.42150000
