40
Properties=species:S:1:pos:R:3 #=T CELL(abcABC):=T 1.889726e+02=T 90.00000=T Traj:=T positionsangstrom=T Step:=T 0=T Bead:=T pbc="F F F"
C      -42.48160000     -31.72550000     -71.95920000
C      -42.84630000     -31.29020000     -70.66190000
C      -43.96470000     -30.45210000     -70.53360000
C      -44.78900000     -30.14080000     -71.59390000
C      -44.44880000     -30.53500000     -72.89390000
C      -43.18680000     -31.20340000     -73.07120000
H      -41.57290000     -32.17530000     -72.12780000
H      -44.33720000     -30.18930000     -69.51370000
H      -44.93740000     -30.14390000     -73.71780000
H      -42.96640000     -31.70190000     -74.03450000
C      -46.13390000     -29.33360000     -71.36680000
H      -46.52120000     -28.98540000     -72.28650000
H      -45.94570000     -28.38190000     -70.78870000
C      -42.00180000     -31.64350000     -69.45840000
H      -41.24810000     -32.30480000     -69.85300000
H      -41.70780000     -30.72560000     -68.82770000
S      -47.34570000     -30.49910000     -70.62960000
S      -43.08680000     -32.61730000     -68.29970000
C      -47.16140000     -31.92540000     -71.85060000
H      -47.66620000     -31.54010000     -72.74110000
H      -46.07970000     -32.10730000     -72.04650000
C      -43.46970000     -34.18720000     -69.26150000
H      -43.48620000     -35.06580000     -68.62530000
H      -42.76090000     -34.34980000     -70.08920000
C      -44.77320000     -34.06540000     -70.02510000
H      -45.66010000     -33.86540000     -69.39800000
H      -44.71180000     -33.19010000     -70.72530000
C      -47.79230000     -33.14170000     -71.30090000
H      -48.80230000     -33.00230000     -71.29160000
H      -47.52280000     -33.25540000     -70.22010000
C      -47.44600000     -34.42820000     -72.04330000
C      -48.25610000     -34.93300000     -73.01660000
C      -46.34040000     -35.30580000     -71.68730000
H      -49.11650000     -34.40520000     -73.36160000
C      -46.44990000     -36.54630000     -72.37980000
C      -45.13640000     -35.26410000     -70.89420000
C      -44.29380000     -36.36610000     -71.05680000
S      -47.73050000     -36.53980000     -73.56270000
S      -44.99640000     -37.60880000     -72.17820000
H      -43.35940000     -36.43890000     -70.51780000
