40
Properties=species:S:1:pos:R:3 #=T CELL(abcABC):=T 1.889726e+02=T 90.00000=T Traj:=T positionsangstrom=T Step:=T 0=T Bead:=T pbc="F F F"
C      -42.40580000     -31.66820000     -72.23220000
C      -42.88900000     -31.30440000     -70.95940000
C      -44.05370000     -30.49470000     -70.83730000
C      -44.85220000     -29.99250000     -71.91490000
C      -44.37240000     -30.40300000     -73.20290000
C      -43.23190000     -31.21880000     -73.30140000
H      -41.66800000     -32.53810000     -72.31140000
H      -44.39230000     -30.22730000     -69.83610000
H      -45.05170000     -30.29800000     -74.10400000
H      -42.78070000     -31.45700000     -74.23140000
C      -46.22800000     -29.39860000     -71.74690000
H      -46.60960000     -29.13010000     -72.74360000
H      -46.16050000     -28.53530000     -71.14760000
C      -42.02020000     -31.83280000     -69.73070000
H      -41.33310000     -32.65580000     -70.09140000
H      -41.40930000     -31.05160000     -69.38180000
S      -47.36360000     -30.42700000     -70.76600000
S      -43.01290000     -32.54520000     -68.39040000
C      -47.31830000     -32.05480000     -71.71200000
H      -48.01320000     -31.88390000     -72.54360000
H      -46.29650000     -32.20350000     -72.03300000
C      -43.43160000     -34.24660000     -69.06050000
H      -43.44270000     -35.04480000     -68.29510000
H      -42.65520000     -34.55480000     -69.78490000
C      -44.81780000     -34.23280000     -69.71300000
H      -45.40350000     -34.15650000     -68.83170000
H      -44.91940000     -33.29920000     -70.22700000
C      -47.75630000     -33.23940000     -70.84850000
H      -48.89730000     -33.13980000     -70.79210000
H      -47.25250000     -33.05990000     -69.85830000
C      -47.51410000     -34.58780000     -71.60370000
C      -48.33360000     -35.02620000     -72.59660000
C      -46.34000000     -35.39920000     -71.47980000
H      -49.25030000     -34.57520000     -72.86590000
C      -46.31570000     -36.38020000     -72.39310000
C      -45.15580000     -35.37300000     -70.61230000
C      -44.35450000     -36.45340000     -70.90490000
S      -47.62920000     -36.37760000     -73.45160000
S      -44.97840000     -37.52650000     -72.16300000
H      -43.45570000     -36.62380000     -70.32020000
