40
Properties=species:S:1:pos:R:3 #=T CELL(abcABC):=T 1.889726e+02=T 90.00000=T Traj:=T positionsangstrom=T Step:=T 0=T Bead:=T pbc="F F F"
C      -41.93070000     -34.23870000     -72.66040000
C      -42.91370000     -34.21520000     -71.65190000
C      -44.21600000     -34.64350000     -71.94850000
C      -44.53600000     -35.06440000     -73.29020000
C      -43.56040000     -34.99730000     -74.31410000
C      -42.28220000     -34.60790000     -73.98410000
H      -40.88150000     -33.84870000     -72.49950000
H      -45.01060000     -34.67900000     -71.19870000
H      -43.71910000     -35.18160000     -75.38530000
H      -41.46180000     -34.44120000     -74.73930000
C      -45.88700000     -35.53540000     -73.68590000
H      -46.49430000     -35.77320000     -72.88700000
H      -45.79290000     -36.42970000     -74.35370000
C      -42.58910000     -33.66350000     -70.26160000
H      -43.33250000     -33.77970000     -69.50430000
H      -41.60790000     -33.96790000     -69.88260000
S      -46.84200000     -34.27720000     -74.71820000
S      -42.36760000     -31.71240000     -70.35040000
C      -46.30750000     -32.76020000     -73.83030000
H      -45.24640000     -32.84070000     -73.55940000
H      -46.29520000     -31.97640000     -74.63350000
C      -43.81040000     -31.19730000     -71.34150000
H      -44.19420000     -32.03090000     -71.92060000
H      -43.44690000     -30.44090000     -72.04810000
C      -44.96810000     -30.57100000     -70.50730000
H      -44.72890000     -29.57960000     -69.97350000
H      -45.72170000     -30.25260000     -71.19560000
C      -47.17850000     -32.17250000     -72.65570000
H      -48.23530000     -32.18510000     -73.00340000
H      -46.81840000     -31.15870000     -72.46950000
C      -47.22080000     -33.02060000     -71.38210000
C      -47.93750000     -34.18420000     -71.26280000
C      -46.55060000     -32.67590000     -70.11920000
H      -48.57020000     -34.63530000     -72.01860000
C      -47.01090000     -33.45500000     -69.13550000
C      -45.67170000     -31.62200000     -69.64240000
C      -45.42020000     -31.78490000     -68.32840000
S      -48.05890000     -34.84570000     -69.58620000
S      -46.32220000     -33.07050000     -67.56970000
H      -44.81440000     -31.09500000     -67.75170000
