40
Properties=species:S:1:pos:R:3 #=T CELL(abcABC):=T 1.889726e+02=T 90.00000=T Traj:=T positionsangstrom=T Step:=T 0=T Bead:=T pbc="F F F"
C      -42.15050000     -34.15770000     -72.67650000
C      -43.06500000     -34.17850000     -71.64160000
C      -44.35440000     -34.64870000     -71.94930000
C      -44.60540000     -35.25030000     -73.26880000
C      -43.57640000     -35.29360000     -74.15340000
C      -42.37690000     -34.71140000     -73.91070000
H      -41.14230000     -33.73970000     -72.39020000
H      -45.20510000     -34.61730000     -71.32110000
H      -43.74430000     -35.77420000     -75.08530000
H      -41.56430000     -34.61980000     -74.69740000
C      -46.01000000     -35.73660000     -73.56140000
H      -46.39800000     -36.17680000     -72.61430000
H      -45.88820000     -36.67530000     -74.30040000
C      -42.70190000     -33.60960000     -70.27790000
H      -43.52330000     -33.77230000     -69.53190000
H      -41.84740000     -34.09250000     -69.78570000
S      -47.16980000     -34.50180000     -74.23140000
S      -42.17290000     -31.84620000     -70.18420000
C      -46.41900000     -32.85530000     -73.93810000
H      -45.31840000     -32.95310000     -73.76270000
H      -46.44070000     -32.39090000     -74.89410000
C      -43.43930000     -31.03560000     -71.34280000
H      -43.71770000     -31.69510000     -72.17900000
H      -42.95730000     -30.11930000     -71.88970000
C      -44.72410000     -30.59520000     -70.63240000
H      -44.58350000     -29.77930000     -69.91320000
H      -45.32990000     -30.20230000     -71.38840000
C      -47.06030000     -32.02610000     -72.76270000
H      -47.93460000     -31.52680000     -73.12780000
H      -46.36080000     -31.17690000     -72.53430000
C      -47.32200000     -32.75110000     -71.50060000
C      -48.29450000     -33.70450000     -71.26360000
C      -46.52690000     -32.53980000     -70.28720000
H      -49.06280000     -34.06570000     -71.95970000
C      -46.86060000     -33.41950000     -69.31020000
C      -45.44130000     -31.65810000     -69.87040000
C      -45.16020000     -31.85740000     -68.52580000
S      -48.19680000     -34.45300000     -69.67790000
S      -46.04020000     -33.23490000     -67.79770000
H      -44.53820000     -31.31610000     -67.86280000
