40
Properties=species:S:1:pos:R:3 #=T CELL(abcABC):=T 1.889726e+02=T 90.00000=T Traj:=T positionsangstrom=T Step:=T 0=T Bead:=T pbc="F F F"
C      -41.79660000     -34.23610000     -72.75050000
C      -42.81170000     -34.18030000     -71.77100000
C      -44.15390000     -34.55900000     -72.08630000
C      -44.37280000     -35.14050000     -73.34860000
C      -43.35210000     -35.32910000     -74.30250000
C      -42.08500000     -34.89300000     -73.96000000
H      -40.76190000     -34.07760000     -72.42860000
H      -44.96500000     -34.49160000     -71.35870000
H      -43.53810000     -35.93460000     -75.12840000
H      -41.26450000     -35.12080000     -74.66660000
C      -45.82230000     -35.46120000     -73.61410000
H      -46.48140000     -35.60690000     -72.72690000
H      -45.89960000     -36.46530000     -74.20020000
C      -42.67560000     -33.56810000     -70.34720000
H      -43.56710000     -33.81580000     -69.77070000
H      -41.66330000     -33.85290000     -69.86190000
S      -46.65900000     -34.20930000     -74.64440000
S      -42.46300000     -31.74530000     -70.41590000
C      -46.32500000     -32.62530000     -73.73910000
H      -45.37990000     -32.59940000     -73.26110000
H      -46.36430000     -31.80590000     -74.43710000
C      -43.91130000     -31.08140000     -71.39210000
H      -44.27160000     -31.81720000     -72.09800000
H      -43.52700000     -30.21850000     -71.95620000
C      -45.08270000     -30.52730000     -70.57450000
H      -44.72840000     -29.67120000     -70.00340000
H      -45.76870000     -30.24010000     -71.35210000
C      -47.34530000     -32.19200000     -72.66430000
H      -48.39460000     -32.17970000     -72.98590000
H      -47.05590000     -31.13120000     -72.49750000
C      -47.33500000     -32.97680000     -71.33860000
C      -48.14720000     -34.10260000     -71.16210000
C      -46.56460000     -32.72120000     -70.12460000
H      -48.79440000     -34.53640000     -71.95110000
C      -46.96070000     -33.59380000     -69.04930000
C      -45.72380000     -31.60200000     -69.67290000
C      -45.41850000     -31.72180000     -68.32590000
S      -48.20390000     -34.78810000     -69.53460000
S      -46.28020000     -33.11280000     -67.56410000
H      -44.72830000     -31.11920000     -67.77740000
