40
Properties=species:S:1:pos:R:3 #=T CELL(abcABC):=T 1.889726e+02=T 90.00000=T Traj:=T positionsangstrom=T Step:=T 0=T Bead:=T pbc="F F F"
C      -42.22950000     -33.81900000     -72.73130000
C      -43.13900000     -34.17140000     -71.64320000
C      -44.26540000     -34.88650000     -71.95860000
C      -44.54680000     -35.28670000     -73.23850000
C      -43.65090000     -35.01440000     -74.27230000
C      -42.46330000     -34.30810000     -73.98740000
H      -41.33200000     -33.32130000     -72.47530000
H      -44.93710000     -35.26130000     -71.18390000
H      -43.87570000     -35.20100000     -75.33390000
H      -41.70330000     -34.17160000     -74.72290000
C      -45.86900000     -35.88600000     -73.69140000
H      -46.40990000     -36.43660000     -72.77550000
H      -45.85380000     -36.54370000     -74.53550000
C      -42.77560000     -33.67660000     -70.25000000
H      -43.58980000     -33.91430000     -69.55960000
H      -41.78600000     -34.17730000     -70.00630000
S      -47.00700000     -34.57250000     -74.31330000
S      -42.36760000     -31.79140000     -70.19560000
C      -46.22860000     -32.92350000     -73.77360000
H      -45.34700000     -33.20640000     -73.23090000
H      -46.00000000     -32.32310000     -74.60600000
C      -43.65620000     -31.06680000     -71.28360000
H      -44.05300000     -31.87000000     -71.95250000
H      -43.20900000     -30.26860000     -71.85250000
C      -44.85300000     -30.45840000     -70.51850000
H      -44.45320000     -29.73560000     -69.85840000
H      -45.62370000     -29.98800000     -71.14510000
C      -47.12410000     -32.13140000     -72.82630000
H      -48.11060000     -31.99490000     -73.36000000
H      -46.64200000     -31.13390000     -72.71200000
C      -47.28850000     -32.80890000     -71.46230000
C      -48.11060000     -33.91530000     -71.35440000
C      -46.48160000     -32.57240000     -70.29460000
H      -48.80730000     -34.18790000     -72.14350000
C      -46.89610000     -33.46520000     -69.23240000
C      -45.53770000     -31.59910000     -69.75160000
C      -45.28010000     -31.74380000     -68.41770000
S      -48.02340000     -34.66790000     -69.77560000
S      -46.04750000     -33.10550000     -67.67470000
H      -44.43210000     -31.25240000     -67.83820000
