40
Properties=species:S:1:pos:R:3 #=T CELL(abcABC):=T 1.889726e+02=T 90.00000=T Traj:=T positionsangstrom=T Step:=T 0=T Bead:=T pbc="F F F"
C      -41.69400000     -34.36770000     -72.62700000
C      -42.75060000     -34.07310000     -71.73060000
C      -44.07430000     -34.55840000     -72.14390000
C      -44.29000000     -35.14200000     -73.40690000
C      -43.21360000     -35.51570000     -74.26890000
C      -41.94710000     -35.02180000     -73.84420000
H      -40.76520000     -33.84840000     -72.42940000
H      -44.96840000     -34.43120000     -71.49700000
H      -43.33800000     -35.79540000     -75.28870000
H      -41.18840000     -35.24420000     -74.53000000
C      -45.67200000     -35.60490000     -73.82130000
H      -46.14920000     -36.11910000     -72.93370000
H      -45.52630000     -36.30220000     -74.61220000
C      -42.52190000     -33.43520000     -70.43230000
H      -43.27640000     -33.83850000     -69.77180000
H      -41.66450000     -33.77630000     -69.93820000
S      -46.69570000     -34.14050000     -74.55380000
S      -42.43710000     -31.59670000     -70.44570000
C      -46.35310000     -32.57160000     -73.53110000
H      -45.40850000     -32.78010000     -72.91600000
H      -46.14290000     -31.84860000     -74.36570000
C      -43.93940000     -31.06840000     -71.43600000
H      -44.25880000     -31.95090000     -72.01860000
H      -43.57170000     -30.37150000     -72.17040000
C      -45.13110000     -30.54010000     -70.58560000
H      -44.82850000     -29.74990000     -69.94940000
H      -45.97130000     -30.10540000     -71.25400000
C      -47.56300000     -32.21060000     -72.67490000
H      -48.46290000     -32.36880000     -73.23100000
H      -47.46350000     -31.12200000     -72.41000000
C      -47.54550000     -32.89290000     -71.31840000
C      -48.31090000     -34.04260000     -71.15620000
C      -46.80530000     -32.59260000     -70.15850000
H      -48.96510000     -34.50580000     -71.90200000
C      -47.10030000     -33.50480000     -69.08130000
C      -45.77830000     -31.63410000     -69.71760000
C      -45.37510000     -31.94200000     -68.42560000
S      -48.23150000     -34.76870000     -69.46340000
S      -46.19170000     -33.24400000     -67.62620000
H      -44.63810000     -31.41540000     -67.83870000
