40
Properties=species:S:1:pos:R:3 #=T CELL(abcABC):=T 1.889726e+02=T 90.00000=T Traj:=T positionsangstrom=T Step:=T 0=T Bead:=T pbc="F F F"
C      -42.03410000     -34.30450000     -72.67550000
C      -42.92550000     -34.25360000     -71.59830000
C      -44.26560000     -34.68400000     -71.91540000
C      -44.65400000     -35.15900000     -73.22530000
C      -43.60590000     -35.25850000     -74.16210000
C      -42.34500000     -34.73530000     -73.93440000
H      -41.02050000     -33.89180000     -72.50940000
H      -44.98880000     -34.62450000     -71.11550000
H      -43.88590000     -35.53980000     -75.17020000
H      -41.56580000     -34.72370000     -74.76690000
C      -46.05550000     -35.59190000     -73.33910000
H      -46.54150000     -35.62090000     -72.45960000
H      -46.13730000     -36.58590000     -73.91380000
C      -42.63150000     -33.73560000     -70.22260000
H      -43.50760000     -33.86200000     -69.54940000
H      -41.84750000     -34.26610000     -69.75910000
S      -47.12190000     -34.45600000     -74.40330000
S      -42.15690000     -31.90200000     -70.29820000
C      -46.43220000     -32.82100000     -73.92880000
H      -45.38320000     -32.91380000     -73.60260000
H      -46.48170000     -32.23340000     -74.83820000
C      -43.35600000     -31.14980000     -71.34730000
H      -43.71850000     -31.79370000     -72.08280000
H      -42.89080000     -30.32560000     -71.80220000
C      -44.66670000     -30.64760000     -70.61240000
H      -44.40360000     -29.82740000     -69.93440000
H      -45.28400000     -30.16200000     -71.39030000
C      -47.27710000     -32.03270000     -72.78530000
H      -48.37930000     -31.99400000     -73.10030000
H      -46.88260000     -31.04610000     -72.74200000
C      -47.28570000     -32.74150000     -71.49810000
C      -48.20630000     -33.77670000     -71.36810000
C      -46.51400000     -32.55170000     -70.23630000
H      -48.83910000     -34.08270000     -72.19470000
C      -46.95450000     -33.34330000     -69.22530000
C      -45.40100000     -31.70610000     -69.81040000
C      -45.06500000     -31.94880000     -68.47310000
S      -48.30520000     -34.40630000     -69.70340000
S      -46.12980000     -33.10730000     -67.69640000
H      -44.45130000     -31.50420000     -67.77240000
