40
Properties=species:S:1:pos:R:3 #=T CELL(abcABC):=T 1.889726e+02=T 90.00000=T Traj:=T positionsangstrom=T Step:=T 0=T Bead:=T pbc="F F F"
C      -41.87090000     -34.55640000     -72.70130000
C      -42.73000000     -34.44370000     -71.65670000
C      -44.06310000     -34.82400000     -71.76450000
C      -44.59420000     -35.29850000     -72.95110000
C      -43.73710000     -35.32480000     -74.08450000
C      -42.36240000     -35.06650000     -73.97090000
H      -40.83900000     -34.37610000     -72.70800000
H      -44.67440000     -34.86540000     -70.88530000
H      -44.15820000     -35.68650000     -74.98610000
H      -41.67720000     -35.31520000     -74.75620000
C      -46.05590000     -35.50620000     -73.10630000
H      -46.62510000     -35.50960000     -72.12630000
H      -46.32140000     -36.38720000     -73.63160000
C      -42.23970000     -33.82190000     -70.32990000
H      -43.01160000     -34.10720000     -69.53260000
H      -41.29630000     -34.17540000     -70.07400000
S      -46.77830000     -34.20770000     -74.22750000
S      -42.06710000     -31.88830000     -70.33630000
C      -46.25980000     -32.51860000     -73.72540000
H      -45.26710000     -32.59500000     -73.17150000
H      -46.12820000     -31.89530000     -74.60870000
C      -43.43760000     -31.16860000     -71.37990000
H      -43.57810000     -31.76160000     -72.22220000
H      -42.97110000     -30.24540000     -71.70590000
C      -44.63070000     -30.76220000     -70.55310000
H      -44.32320000     -29.94430000     -69.89260000
H      -45.29880000     -30.18610000     -71.27380000
C      -47.15760000     -31.80890000     -72.75340000
H      -48.10620000     -31.54670000     -73.21030000
H      -46.68330000     -30.87480000     -72.41890000
C      -47.44500000     -32.57500000     -71.53530000
C      -48.44620000     -33.55540000     -71.41950000
C      -46.73220000     -32.49050000     -70.28840000
H      -49.13550000     -33.87310000     -72.24590000
C      -47.27360000     -33.33450000     -69.31800000
C      -45.48580000     -31.80890000     -69.81590000
C      -45.20890000     -32.10990000     -68.54640000
S      -48.63090000     -34.29080000     -69.86540000
S      -46.27180000     -33.28850000     -67.88210000
H      -44.37080000     -31.54870000     -68.01940000
