40
Properties=species:S:1:pos:R:3 #=T CELL(abcABC):=T 1.889726e+02=T 90.00000=T Traj:=T positionsangstrom=T Step:=T 0=T Bead:=T pbc="F F F"
C      -41.87880000     -34.66420000     -72.65260000
C      -42.76480000     -34.28360000     -71.65500000
C      -44.14020000     -34.57440000     -71.75730000
C      -44.65250000     -35.11130000     -72.97700000
C      -43.76370000     -35.38710000     -74.03200000
C      -42.41120000     -35.24670000     -73.82220000
H      -40.80160000     -34.50780000     -72.47270000
H      -44.82570000     -34.26800000     -70.93820000
H      -44.08700000     -35.98120000     -74.86030000
H      -41.65320000     -35.60900000     -74.50480000
C      -46.16140000     -35.35390000     -73.19720000
H      -46.68730000     -35.48340000     -72.22700000
H      -46.35260000     -36.24040000     -73.70530000
C      -42.25080000     -33.74570000     -70.34630000
H      -42.91040000     -33.95050000     -69.50210000
H      -41.28110000     -34.24060000     -70.12790000
S      -46.98200000     -34.05120000     -74.21730000
S      -41.97320000     -31.83920000     -70.58380000
C      -46.19230000     -32.59450000     -73.48050000
H      -45.51470000     -33.02630000     -72.70120000
H      -45.52040000     -32.10890000     -74.15720000
C      -43.49990000     -31.21610000     -71.40560000
H      -43.84230000     -31.95410000     -72.21590000
H      -43.23200000     -30.35480000     -72.00250000
C      -44.63230000     -30.84310000     -70.46850000
H      -44.27170000     -30.21370000     -69.70390000
H      -45.34660000     -30.20400000     -71.03390000
C      -47.14290000     -31.69600000     -72.70810000
H      -47.95530000     -31.43210000     -73.37380000
H      -46.65890000     -30.78540000     -72.38690000
C      -47.50230000     -32.46390000     -71.46210000
C      -48.61790000     -33.23120000     -71.34180000
C      -46.60380000     -32.62080000     -70.34730000
H      -49.39100000     -33.30700000     -72.13560000
C      -47.13240000     -33.50340000     -69.36970000
C      -45.46390000     -31.93840000     -69.79710000
C      -45.07460000     -32.34030000     -68.56460000
S      -48.59210000     -34.23360000     -69.84470000
S      -46.13610000     -33.58750000     -67.90690000
H      -44.34480000     -31.98750000     -67.88770000
