40
Properties=species:S:1:pos:R:3 #=T CELL(abcABC):=T 1.889726e+02=T 90.00000=T Traj:=T positionsangstrom=T Step:=T 0=T Bead:=T pbc="F F F"
C      -41.84430000     -34.53760000     -72.64050000
C      -42.78970000     -34.21620000     -71.62880000
C      -44.15660000     -34.47750000     -71.89920000
C      -44.61890000     -35.05890000     -73.09950000
C      -43.64190000     -35.41500000     -74.02650000
C      -42.28580000     -35.13860000     -73.79760000
H      -40.78230000     -34.25840000     -72.46010000
H      -44.90770000     -34.16380000     -71.25230000
H      -43.91450000     -35.91510000     -74.96080000
H      -41.56520000     -35.44260000     -74.61880000
C      -46.04400000     -35.47880000     -73.23600000
H      -46.44870000     -35.55570000     -72.29830000
H      -46.07390000     -36.50570000     -73.69900000
C      -42.34770000     -33.67700000     -70.27400000
H      -43.08920000     -33.89140000     -69.46060000
H      -41.40970000     -34.07350000     -69.96950000
S      -46.98000000     -34.32270000     -74.40360000
S      -42.00560000     -31.85950000     -70.37370000
C      -46.25250000     -32.70940000     -73.76610000
H      -45.33630000     -32.97670000     -73.36490000
H      -45.94070000     -32.08570000     -74.63330000
C      -43.47270000     -31.30070000     -71.27830000
H      -43.85400000     -32.10890000     -71.88870000
H      -43.16310000     -30.44410000     -72.04270000
C      -44.65240000     -30.75740000     -70.45590000
H      -44.23980000     -30.05190000     -69.67310000
H      -45.33590000     -30.20050000     -71.07400000
C      -47.11310000     -31.85800000     -72.80200000
H      -48.06950000     -31.82080000     -73.32880000
H      -46.66230000     -30.87940000     -72.80700000
C      -47.41780000     -32.46340000     -71.45350000
C      -48.61250000     -33.15520000     -71.28730000
C      -46.58770000     -32.61510000     -70.31410000
H      -49.40170000     -33.22160000     -72.02070000
C      -47.12920000     -33.44770000     -69.36410000
C      -45.40300000     -31.95010000     -69.74570000
C      -45.10570000     -32.27030000     -68.47310000
S      -48.67960000     -34.11910000     -69.81870000
S      -46.18020000     -33.52350000     -67.84910000
H      -44.21930000     -31.88330000     -67.93240000
