40
Properties=species:S:1:pos:R:3 #=T CELL(abcABC):=T 1.889726e+02=T 90.00000=T Traj:=T positionsangstrom=T Step:=T 0=T Bead:=T pbc="F F F"
C      -45.63060000     -32.47410000     -75.14790000
C      -45.53850000     -31.39220000     -74.32400000
C      -46.54290000     -31.13520000     -73.31260000
C      -47.62140000     -32.02940000     -73.24860000
C      -47.70130000     -33.17800000     -74.05060000
C      -46.66290000     -33.38690000     -75.01170000
H      -44.79860000     -32.66440000     -75.75570000
H      -46.36800000     -30.29690000     -72.61770000
H      -48.48270000     -33.97690000     -73.87810000
H      -46.86860000     -34.14390000     -75.80710000
C      -48.77380000     -31.73440000     -72.32860000
H      -49.51310000     -32.53390000     -72.31230000
H      -49.26000000     -30.85190000     -72.70500000
C      -44.24280000     -30.63390000     -74.37460000
H      -43.61150000     -31.09350000     -75.07780000
H      -44.35900000     -29.60530000     -74.54620000
S      -48.23340000     -31.38420000     -70.59750000
S      -43.22030000     -30.68950000     -72.77620000
C      -47.44160000     -33.09790000     -70.15890000
H      -48.22700000     -33.81580000     -69.78210000
H      -47.06280000     -33.53140000     -71.07480000
C      -43.08280000     -32.54240000     -72.60540000
H      -42.03640000     -32.83210000     -72.68930000
H      -43.59780000     -32.99780000     -73.48790000
C      -43.87010000     -32.95600000     -71.30490000
H      -43.77750000     -32.18580000     -70.56880000
H      -44.89220000     -32.83890000     -71.57240000
C      -46.24140000     -32.83910000     -69.14730000
H      -46.58750000     -32.49890000     -68.17540000
H      -45.60860000     -32.11140000     -69.63950000
C      -45.60760000     -34.17630000     -68.90830000
C      -46.02060000     -35.06090000     -67.87420000
C      -44.42570000     -34.76490000     -69.56590000
H      -46.86410000     -34.83620000     -67.21920000
C      -44.03880000     -36.02880000     -69.15320000
C      -43.59290000     -34.29800000     -70.66910000
C      -42.68340000     -35.26790000     -71.07520000
S      -45.08270000     -36.53430000     -67.79590000
S      -42.86180000     -36.76900000     -70.21630000
H      -41.90970000     -35.34850000     -71.87220000
