40
Properties=species:S:1:pos:R:3 #=T CELL(abcABC):=T 1.889726e+02=T 90.00000=T Traj:=T positionsangstrom=T Step:=T 0=T Bead:=T pbc="F F F"
C      -42.35390000     -34.93340000     -73.18740000
C      -43.20670000     -34.61260000     -72.05820000
C      -44.57900000     -34.75380000     -72.27060000
C      -45.13500000     -35.00780000     -73.54360000
C      -44.22510000     -35.23110000     -74.65150000
C      -42.85560000     -35.35280000     -74.43760000
H      -41.26030000     -35.07890000     -72.96050000
H      -45.17390000     -34.57840000     -71.38230000
H      -44.65160000     -35.51540000     -75.62030000
H      -42.15010000     -35.64750000     -75.20450000
C      -46.64300000     -35.16750000     -73.68060000
H      -47.10920000     -35.29830000     -72.73990000
H      -46.83180000     -36.06330000     -74.29840000
C      -42.72960000     -34.27810000     -70.72420000
H      -43.62080000     -34.24390000     -69.96990000
H      -42.08690000     -35.08370000     -70.38590000
S      -47.58270000     -33.66520000     -74.37800000
S      -41.90890000     -32.55470000     -70.50360000
C      -46.54970000     -32.15690000     -73.79210000
H      -45.50660000     -32.48420000     -73.68370000
H      -46.57930000     -31.36080000     -74.54300000
C      -43.17080000     -31.43860000     -71.32250000
H      -43.62600000     -32.07530000     -72.12130000
H      -42.56470000     -30.71210000     -71.87370000
C      -44.21920000     -30.76930000     -70.33540000
H      -43.61730000     -30.13670000     -69.65130000
H      -44.72770000     -30.07600000     -70.98320000
C      -46.97710000     -31.61450000     -72.38710000
H      -48.10410000     -31.39610000     -72.45950000
H      -46.29910000     -30.77500000     -72.10910000
C      -47.03560000     -32.60880000     -71.19530000
C      -48.02090000     -33.54390000     -70.99720000
C      -46.23060000     -32.45180000     -69.99050000
H      -48.83380000     -33.80510000     -71.75810000
C      -46.72910000     -33.24520000     -68.94730000
C      -45.06920000     -31.75110000     -69.58010000
C      -44.78950000     -31.98520000     -68.26000000
S      -48.05350000     -34.31000000     -69.38260000
S      -45.83590000     -33.14640000     -67.43600000
H      -44.00430000     -31.39600000     -67.75820000
