40
Properties=species:S:1:pos:R:3 #=T CELL(abcABC):=T 1.889726e+02=T 90.00000=T Traj:=T positionsangstrom=T Step:=T 0=T Bead:=T pbc="F F F"
C      -42.38730000     -34.70310000     -73.10580000
C      -43.29880000     -34.51110000     -72.02000000
C      -44.67460000     -34.67730000     -72.30740000
C      -45.14670000     -35.13070000     -73.55690000
C      -44.23100000     -35.30910000     -74.59520000
C      -42.88020000     -35.08930000     -74.32650000
H      -41.34490000     -34.43860000     -72.84390000
H      -45.44640000     -34.57140000     -71.54250000
H      -44.57740000     -35.62550000     -75.59390000
H      -42.14430000     -35.19510000     -75.12460000
C      -46.64600000     -35.34050000     -73.71160000
H      -47.22070000     -35.47220000     -72.77870000
H      -46.80300000     -36.13550000     -74.44910000
C      -42.71200000     -34.21790000     -70.65120000
H      -43.39650000     -34.36710000     -69.86780000
H      -41.96560000     -34.99320000     -70.55810000
S      -47.31380000     -33.69340000     -74.44830000
S      -41.95550000     -32.54840000     -70.47890000
C      -46.36290000     -32.24920000     -73.51290000
H      -45.45870000     -32.68860000     -73.27480000
H      -46.27310000     -31.60650000     -74.39820000
C      -43.19810000     -31.44350000     -71.30830000
H      -43.77700000     -32.04760000     -72.00490000
H      -42.66340000     -30.67760000     -71.84880000
C      -44.27830000     -30.73380000     -70.48750000
H      -43.81410000     -30.05420000     -69.76710000
H      -45.00260000     -30.10860000     -70.99900000
C      -47.10750000     -31.62260000     -72.41250000
H      -48.15800000     -31.41630000     -72.72340000
H      -46.64160000     -30.69730000     -72.17930000
C      -47.20410000     -32.51980000     -71.13390000
C      -48.18240000     -33.49650000     -70.97100000
C      -46.28930000     -32.50790000     -70.00930000
H      -48.84270000     -33.88370000     -71.77400000
C      -46.74340000     -33.35490000     -68.93440000
C      -45.12680000     -31.78320000     -69.61880000
C      -44.69990000     -32.09270000     -68.34840000
S      -48.10160000     -34.29920000     -69.41210000
S      -45.74750000     -33.18130000     -67.48700000
H      -43.82670000     -31.70150000     -67.92990000
