40
Properties=species:S:1:pos:R:3 #=T CELL(abcABC):=T 1.889726e+02=T 90.00000=T Traj:=T positionsangstrom=T Step:=T 0=T Bead:=T pbc="F F F"
C      -42.70310000     -34.69010000     -73.07620000
C      -43.56180000     -34.60760000     -71.97050000
C      -44.93190000     -34.90470000     -72.00760000
C      -45.47590000     -35.23210000     -73.26690000
C      -44.60470000     -35.49250000     -74.30270000
C      -43.24100000     -35.21200000     -74.23380000
H      -41.71680000     -34.39250000     -72.98230000
H      -45.55600000     -34.71890000     -71.16360000
H      -45.05930000     -35.75250000     -75.16530000
H      -42.59700000     -35.30870000     -75.12840000
C      -46.97870000     -35.21210000     -73.60780000
H      -47.64890000     -35.31940000     -72.70060000
H      -47.27420000     -35.99550000     -74.25350000
C      -42.91440000     -34.17530000     -70.68660000
H      -43.59860000     -34.05690000     -69.86920000
H      -42.14860000     -35.01210000     -70.44300000
S      -47.30390000     -33.57370000     -74.51680000
S      -41.85130000     -32.61360000     -70.66510000
C      -46.29150000     -32.23440000     -73.66600000
H      -45.37390000     -32.77490000     -73.43170000
H      -46.13530000     -31.46420000     -74.40580000
C      -43.01170000     -31.42110000     -71.45320000
H      -43.63720000     -31.86660000     -72.19750000
H      -42.41920000     -30.65290000     -72.04790000
C      -44.00730000     -30.78710000     -70.40050000
H      -43.46800000     -30.19210000     -69.64320000
H      -44.69380000     -30.12480000     -70.96570000
C      -46.93980000     -31.51190000     -72.39000000
H      -47.92770000     -31.05330000     -72.59630000
H      -46.39220000     -30.52780000     -72.15690000
C      -47.02940000     -32.39310000     -71.15900000
C      -48.17100000     -33.10690000     -70.90040000
C      -46.07180000     -32.49620000     -70.01730000
H      -49.08230000     -32.95980000     -71.50230000
C      -46.53630000     -33.41580000     -69.04410000
C      -44.85010000     -31.79280000     -69.62610000
C      -44.52780000     -32.19720000     -68.34270000
S      -48.18600000     -34.04440000     -69.34710000
S      -45.48440000     -33.51120000     -67.66180000
H      -43.85580000     -31.66430000     -67.66060000
