40
Properties=species:S:1:pos:R:3 #=T CELL(abcABC):=T 1.889726e+02=T 90.00000=T Traj:=T positionsangstrom=T Step:=T 0=T Bead:=T pbc="F F F"
C      -42.30590000     -34.58040000     -72.97700000
C      -43.18880000     -34.67010000     -71.90260000
C      -44.56560000     -34.97830000     -72.15700000
C      -45.05720000     -35.26680000     -73.44840000
C      -44.11920000     -35.25630000     -74.45760000
C      -42.80100000     -34.86280000     -74.25770000
H      -41.30970000     -34.15880000     -72.81090000
H      -45.22460000     -35.00680000     -71.29200000
H      -44.42560000     -35.35790000     -75.47490000
H      -42.14720000     -34.81040000     -75.15080000
C      -46.54670000     -35.20360000     -73.67080000
H      -47.02380000     -35.41590000     -72.69470000
H      -46.82110000     -36.05120000     -74.25690000
C      -42.82330000     -34.22420000     -70.47770000
H      -43.66000000     -34.22890000     -69.77440000
H      -41.92490000     -34.77090000     -70.02110000
S      -47.09380000     -33.64460000     -74.43610000
S      -42.12950000     -32.50870000     -70.53760000
C      -46.31970000     -32.34900000     -73.46930000
H      -45.40930000     -32.74180000     -72.96690000
H      -45.88100000     -31.56800000     -74.12700000
C      -43.41410000     -31.43970000     -71.39100000
H      -43.83950000     -32.08720000     -72.10980000
H      -42.72090000     -30.76260000     -71.90560000
C      -44.42290000     -30.78740000     -70.53690000
H      -43.79620000     -30.13920000     -69.87920000
H      -45.05410000     -30.18890000     -71.20100000
C      -47.18700000     -31.63580000     -72.43140000
H      -48.06930000     -31.30680000     -72.95340000
H      -46.81600000     -30.58890000     -72.20140000
C      -47.32510000     -32.47210000     -71.16480000
C      -48.40180000     -33.31070000     -70.89970000
C      -46.32210000     -32.55340000     -70.11610000
H      -49.25270000     -33.25710000     -71.50130000
C      -46.69290000     -33.43640000     -69.08770000
C      -45.13690000     -31.78150000     -69.70740000
C      -44.71070000     -32.08450000     -68.44450000
S      -48.20460000     -34.19860000     -69.40520000
S      -45.62960000     -33.38110000     -67.64410000
H      -43.87010000     -31.58990000     -68.01000000
