40
Properties=species:S:1:pos:R:3 #=T CELL(abcABC):=T 1.889726e+02=T 90.00000=T Traj:=T positionsangstrom=T Step:=T 0=T Bead:=T pbc="F F F"
C      -42.14420000     -35.72510000     -72.08840000
C      -42.55300000     -34.69970000     -73.00280000
C      -42.45540000     -33.36590000     -72.61030000
C      -41.87050000     -33.01240000     -71.36290000
C      -41.39900000     -34.01960000     -70.56410000
C      -41.53390000     -35.34620000     -70.89140000
H      -42.25800000     -36.71350000     -72.32790000
H      -42.85150000     -32.52920000     -73.15820000
H      -40.81920000     -33.83050000     -69.71900000
H      -41.05130000     -36.14350000     -70.26520000
C      -41.65890000     -31.53160000     -71.00240000
H      -42.00010000     -30.94220000     -71.93280000
H      -40.61550000     -31.46910000     -70.74840000
C      -43.25500000     -35.04540000     -74.29650000
H      -43.56030000     -34.04440000     -74.78650000
H      -42.59960000     -35.58990000     -75.03920000
S      -42.59000000     -31.01470000     -69.49600000
S      -44.76280000     -36.12520000     -74.30950000
C      -44.40500000     -31.26470000     -70.02820000
H      -45.05150000     -30.50250000     -69.55070000
H      -44.47570000     -31.20410000     -71.17420000
C      -46.24920000     -35.16940000     -73.82860000
H      -47.08400000     -35.90710000     -73.83200000
H      -46.31190000     -34.44550000     -74.63430000
C      -46.05850000     -34.41300000     -72.48020000
H      -45.65690000     -35.10050000     -71.70560000
H      -45.36490000     -33.55620000     -72.51420000
C      -44.97970000     -32.63070000     -69.62470000
H      -44.66880000     -32.78620000     -68.63110000
H      -44.61470000     -33.45110000     -70.22290000
C      -46.51130000     -32.60310000     -69.59390000
C      -47.15830000     -31.93500000     -68.58590000
C      -47.35340000     -32.95980000     -70.68420000
H      -46.83520000     -31.47830000     -67.68850000
C      -48.69270000     -32.70990000     -70.31710000
C      -47.36730000     -33.75140000     -71.95440000
C      -48.59280000     -33.96560000     -72.53300000
S      -48.87730000     -31.77250000     -68.88530000
S      -49.88150000     -33.28030000     -71.47990000
H      -48.90450000     -34.54840000     -73.42930000
