40
Properties=species:S:1:pos:R:3 #=T CELL(abcABC):=T 1.889726e+02=T 90.00000=T Traj:=T positionsangstrom=T Step:=T 0=T Bead:=T pbc="F F F"
C      -42.46480000     -35.45150000     -73.20040000
C      -43.12570000     -34.95970000     -72.09810000
C      -44.49060000     -34.75240000     -72.09290000
C      -45.20320000     -34.93830000     -73.26690000
C      -44.53360000     -35.37390000     -74.42280000
C      -43.17540000     -35.66230000     -74.38210000
H      -41.39050000     -35.67100000     -73.07020000
H      -45.00270000     -34.44480000     -71.18010000
H      -45.09360000     -35.37620000     -75.41440000
H      -42.80960000     -35.89740000     -75.37000000
C      -46.69550000     -34.80600000     -73.28130000
H      -47.04780000     -34.88820000     -72.29550000
H      -47.16020000     -35.63590000     -73.83870000
C      -42.34860000     -34.62450000     -70.88450000
H      -43.06080000     -34.74270000     -70.02050000
H      -41.46740000     -35.19090000     -70.73520000
S      -47.50950000     -33.26970000     -74.04650000
S      -41.86690000     -32.81110000     -70.80710000
C      -46.54730000     -31.84580000     -73.37380000
H      -45.50380000     -32.10400000     -73.16520000
H      -46.45790000     -31.12120000     -74.20010000
C      -43.25810000     -31.88540000     -71.62840000
H      -43.92950000     -32.68290000     -72.01450000
H      -42.85810000     -31.36270000     -72.47610000
C      -44.09570000     -31.00670000     -70.78660000
H      -43.55070000     -30.23910000     -70.18930000
H      -44.79420000     -30.43490000     -71.46310000
C      -47.16900000     -31.13550000     -72.21290000
H      -48.19060000     -30.77550000     -72.42480000
H      -46.58020000     -30.27640000     -71.93810000
C      -47.32020000     -32.14130000     -70.99950000
C      -48.49540000     -32.77900000     -70.62470000
C      -46.18340000     -32.48060000     -70.13070000
H      -49.49830000     -32.68630000     -71.10650000
C      -46.60090000     -33.37950000     -69.11800000
C      -44.93180000     -31.86840000     -69.82140000
C      -44.49330000     -32.23950000     -68.52590000
S      -48.27600000     -33.96410000     -69.26750000
S      -45.46050000     -33.47980000     -67.78400000
H      -43.57660000     -31.91910000     -68.16340000
