40
Properties=species:S:1:pos:R:3 #=T CELL(abcABC):=T 1.889726e+02=T 90.00000=T Traj:=T positionsangstrom=T Step:=T 0=T Bead:=T pbc="F F F"
C      -45.41710000     -32.72610000     -75.07550000
C      -45.40120000     -31.56120000     -74.28580000
C      -46.46930000     -31.22470000     -73.39960000
C      -47.53130000     -32.17140000     -73.22210000
C      -47.51080000     -33.30860000     -74.07900000
C      -46.53530000     -33.56390000     -74.97320000
H      -44.66450000     -32.95580000     -75.89520000
H      -46.48780000     -30.43160000     -72.59120000
H      -48.40890000     -33.81800000     -74.06310000
H      -46.53480000     -34.55170000     -75.47610000
C      -48.65160000     -32.02020000     -72.26930000
H      -49.17600000     -32.92150000     -72.07220000
H      -49.46010000     -31.35590000     -72.55960000
C      -44.29480000     -30.55030000     -74.44130000
H      -43.78500000     -30.64530000     -75.38580000
H      -44.75240000     -29.54860000     -74.49170000
S      -48.03710000     -31.52550000     -70.59410000
S      -43.03450000     -30.68670000     -73.04760000
C      -47.37390000     -33.16780000     -70.02850000
H      -48.13900000     -33.81330000     -69.85890000
H      -46.74700000     -33.58270000     -70.83140000
C      -43.25120000     -32.42810000     -72.56240000
H      -42.25820000     -32.71910000     -72.15620000
H      -43.32680000     -32.98370000     -73.46660000
C      -44.32970000     -32.84600000     -71.48150000
H      -44.50610000     -32.12190000     -70.74470000
H      -45.28010000     -32.90180000     -72.02820000
C      -46.54670000     -32.95840000     -68.76920000
H      -47.29950000     -32.88060000     -67.94090000
H      -46.01980000     -31.94440000     -68.79590000
C      -45.68210000     -34.13280000     -68.63070000
C      -45.79630000     -34.97770000     -67.56330000
C      -44.61390000     -34.61530000     -69.58920000
H      -46.44400000     -34.82510000     -66.71970000
C      -44.25240000     -35.89590000     -69.21570000
C      -44.01930000     -34.16940000     -70.84140000
C      -43.13240000     -35.09560000     -71.29160000
S      -44.75890000     -36.42260000     -67.64140000
S      -43.09710000     -36.55870000     -70.35310000
H      -42.51600000     -35.03420000     -72.19670000
