40
Properties=species:S:1:pos:R:3 #=T CELL(abcABC):=T 1.889726e+02=T 90.00000=T Traj:=T positionsangstrom=T Step:=T 0=T Bead:=T pbc="F F F"
C      -42.16750000     -32.89960000     -73.18190000
C      -42.35890000     -33.99530000     -72.32190000
C      -43.14900000     -35.06370000     -72.76530000
C      -43.92030000     -34.87950000     -73.94790000
C      -43.73280000     -33.75990000     -74.74290000
C      -42.86410000     -32.71520000     -74.32440000
H      -41.49370000     -32.18700000     -72.67730000
H      -43.35460000     -35.97460000     -72.16690000
H      -44.22900000     -33.71320000     -75.68970000
H      -42.63570000     -31.86270000     -74.93330000
C      -44.95200000     -35.92970000     -74.14740000
H      -45.04890000     -36.65820000     -73.26050000
H      -44.82540000     -36.53510000     -75.07810000
C      -41.36540000     -34.14480000     -71.19730000
H      -40.61450000     -34.91100000     -71.48670000
H      -40.78340000     -33.28530000     -70.89260000
S      -46.65670000     -35.20770000     -74.33020000
S      -42.11550000     -34.85120000     -69.64490000
C      -46.96510000     -34.34560000     -72.69080000
H      -48.02520000     -34.30530000     -72.42680000
H      -46.42520000     -35.00020000     -72.05060000
C      -43.51860000     -33.77070000     -69.32250000
H      -43.33900000     -32.73080000     -69.69630000
H      -43.61630000     -33.79910000     -68.26650000
C      -44.86790000     -34.22410000     -69.83720000
H      -44.83740000     -34.16290000     -70.90960000
H      -45.12280000     -35.27090000     -69.63300000
C      -46.42820000     -32.89270000     -72.69020000
H      -46.68100000     -32.40480000     -73.61620000
H      -45.34780000     -32.88720000     -72.75470000
C      -46.96670000     -32.12460000     -71.52400000
C      -47.85600000     -31.10330000     -71.69190000
C      -46.70820000     -32.47860000     -70.15030000
H      -48.24730000     -30.83270000     -72.66690000
C      -47.56460000     -31.69660000     -69.37180000
C      -45.89690000     -33.33380000     -69.34970000
C      -46.13550000     -33.17800000     -68.01760000
S      -48.58860000     -30.55610000     -70.21340000
S      -47.38490000     -31.98820000     -67.67110000
H      -45.66570000     -33.88090000     -67.25420000
