40
Properties=species:S:1:pos:R:3 #=T CELL(abcABC):=T 1.889726e+02=T 90.00000=T Traj:=T positionsangstrom=T Step:=T 0=T Bead:=T pbc="F F F"
C      -42.33780000     -35.84960000     -72.06660000
C      -42.77840000     -34.84750000     -72.96780000
C      -42.39750000     -33.52660000     -72.79180000
C      -41.66320000     -33.15440000     -71.62800000
C      -41.29970000     -34.10700000     -70.67340000
C      -41.52470000     -35.47040000     -70.95890000
H      -42.45280000     -36.88120000     -72.40920000
H      -42.83960000     -32.85220000     -73.50670000
H      -40.59340000     -33.80900000     -69.87370000
H      -41.08870000     -36.25320000     -70.38570000
C      -41.41050000     -31.75980000     -71.29770000
H      -41.39070000     -31.06360000     -72.14780000
H      -40.36010000     -31.53510000     -70.97810000
C      -43.68910000     -35.16180000     -74.14960000
H      -44.33990000     -34.29900000     -74.45580000
H      -43.09930000     -35.49510000     -75.02360000
S      -42.43040000     -31.05310000     -69.87290000
S      -44.91250000     -36.55020000     -73.74860000
C      -44.15630000     -31.44050000     -70.59520000
H      -44.64300000     -30.44810000     -70.64620000
H      -44.02240000     -31.76500000     -71.58820000
C      -46.38990000     -35.54760000     -73.15160000
H      -46.86900000     -36.34330000     -72.50640000
H      -47.11860000     -35.26360000     -73.97110000
C      -46.07780000     -34.36920000     -72.25470000
H      -45.52610000     -34.76600000     -71.42490000
H      -45.37090000     -33.68560000     -72.72600000
C      -44.93090000     -32.49190000     -69.76290000
H      -44.45970000     -32.51010000     -68.74500000
H      -44.76680000     -33.40920000     -70.20760000
C      -46.44530000     -32.25480000     -69.71020000
C      -47.01580000     -31.32770000     -68.84470000
C      -47.41140000     -32.89470000     -70.58420000
H      -46.51590000     -30.56550000     -68.25480000
C      -48.71630000     -32.42020000     -70.36400000
C      -47.36400000     -33.73350000     -71.74360000
C      -48.64940000     -33.96570000     -72.28770000
S      -48.82100000     -31.29970000     -69.05050000
S      -49.95080000     -33.18240000     -71.33460000
H      -48.93350000     -34.63360000     -73.16120000
