40
Properties=species:S:1:pos:R:3 #=T CELL(abcABC):=T 1.889726e+02=T 90.00000=T Traj:=T positionsangstrom=T Step:=T 0=T Bead:=T pbc="F F F"
C      -42.33580000     -35.87950000     -72.02180000
C      -42.83740000     -34.93510000     -72.95460000
C      -42.52770000     -33.59080000     -72.82350000
C      -41.69260000     -33.21470000     -71.76690000
C      -41.16300000     -34.09180000     -70.85740000
C      -41.51370000     -35.47980000     -70.92710000
H      -42.63190000     -36.93790000     -72.30720000
H      -42.84920000     -32.87590000     -73.55590000
H      -40.55980000     -33.71160000     -69.99620000
H      -41.23170000     -36.22270000     -70.22340000
C      -41.48170000     -31.74930000     -71.63520000
H      -41.80720000     -31.10980000     -72.43070000
H      -40.39660000     -31.65840000     -71.30120000
C      -43.61400000     -35.45690000     -74.17990000
H      -44.00830000     -34.67960000     -74.76090000
H      -42.97900000     -36.07020000     -74.79910000
S      -42.45430000     -31.21280000     -70.05210000
S      -44.98230000     -36.60290000     -73.62800000
C      -44.13680000     -31.39690000     -70.60580000
H      -44.71490000     -30.39810000     -70.56530000
H      -44.15710000     -31.83160000     -71.56610000
C      -46.43060000     -35.53800000     -73.22930000
H      -47.19240000     -36.24070000     -72.96230000
H      -46.72480000     -34.89680000     -74.06700000
C      -46.15360000     -34.58080000     -72.07940000
H      -45.72240000     -34.96730000     -71.15990000
H      -45.46580000     -33.81750000     -72.47030000
C      -44.92740000     -32.36850000     -69.62490000
H      -44.58670000     -32.24220000     -68.60350000
H      -44.65630000     -33.34810000     -69.78320000
C      -46.39290000     -32.14360000     -69.66520000
C      -47.04620000     -31.22410000     -68.86730000
C      -47.38860000     -32.79740000     -70.53030000
H      -46.57970000     -30.57660000     -68.13520000
C      -48.67140000     -32.26500000     -70.38040000
C      -47.35490000     -33.80680000     -71.58860000
C      -48.64690000     -34.05920000     -72.00820000
S      -48.74050000     -31.07660000     -69.06880000
S      -49.89170000     -33.06790000     -71.31430000
H      -48.90460000     -34.93800000     -72.55610000
