40
Properties=species:S:1:pos:R:3 #=T CELL(abcABC):=T 1.889726e+02=T 90.00000=T Traj:=T positionsangstrom=T Step:=T 0=T Bead:=T pbc="F F F"
C      -48.95500000     -33.59540000     -73.36150000
C      -48.79810000     -33.57840000     -71.95320000
C      -48.33470000     -32.41550000     -71.29530000
C      -48.00420000     -31.30440000     -72.08860000
C      -48.14970000     -31.30940000     -73.51060000
C      -48.49680000     -32.49740000     -74.13790000
H      -49.17020000     -34.59390000     -73.76830000
H      -48.17720000     -32.51450000     -70.24630000
H      -47.81330000     -30.55260000     -74.27040000
H      -48.55370000     -32.51540000     -75.20540000
C      -47.70180000     -29.95560000     -71.38780000
H      -48.57160000     -29.54320000     -70.83290000
H      -47.57240000     -29.19670000     -72.21770000
C      -49.12550000     -34.87770000     -71.21760000
H      -50.11620000     -34.85910000     -70.81420000
H      -49.20960000     -35.69570000     -71.90290000
S      -46.27090000     -29.96550000     -70.18460000
S      -47.91900000     -35.24690000     -69.95830000
C      -45.00510000     -30.87740000     -71.16510000
H      -45.49360000     -31.18240000     -72.12140000
H      -44.13850000     -30.30090000     -71.44030000
C      -46.40600000     -35.24780000     -70.96240000
H      -46.19660000     -34.36680000     -71.54420000
H      -46.41010000     -36.20660000     -71.50320000
C      -45.21660000     -35.45570000     -69.98530000
H      -45.30380000     -34.75440000     -69.21400000
H      -45.25680000     -36.49320000     -69.64130000
C      -44.49060000     -32.09330000     -70.27200000
H      -45.20120000     -32.78560000     -70.05380000
H      -44.18000000     -31.68580000     -69.30500000
C      -43.29490000     -32.73430000     -70.83730000
C      -42.14960000     -32.03470000     -71.23830000
C      -43.10280000     -34.18860000     -71.01170000
H      -41.97420000     -30.99890000     -71.41420000
C      -41.83810000     -34.50660000     -71.46710000
C      -43.83450000     -35.38880000     -70.63360000
C      -43.15910000     -36.53240000     -70.95900000
S      -40.87470000     -33.10600000     -71.75920000
S      -41.55260000     -36.22070000     -71.67060000
H      -43.36560000     -37.54080000     -70.63570000
