40
Properties=species:S:1:pos:R:3 #=T CELL(abcABC):=T 1.889726e+02=T 90.00000=T Traj:=T positionsangstrom=T Step:=T 0=T Bead:=T pbc="F F F"
C      -48.86470000     -33.66620000     -73.31340000
C      -48.92730000     -33.55260000     -71.86940000
C      -48.43220000     -32.40810000     -71.24410000
C      -48.04870000     -31.31130000     -72.01090000
C      -48.26530000     -31.29730000     -73.44400000
C      -48.62340000     -32.50970000     -74.06080000
H      -49.30950000     -34.60320000     -73.74990000
H      -48.37970000     -32.36900000     -70.12930000
H      -48.29350000     -30.37580000     -74.13460000
H      -48.78750000     -32.59610000     -75.14960000
C      -47.74380000     -29.94010000     -71.53310000
H      -48.50150000     -29.58140000     -70.86660000
H      -47.63280000     -29.20720000     -72.33460000
C      -49.25630000     -34.71190000     -71.03090000
H      -50.10930000     -34.45510000     -70.40380000
H      -49.36860000     -35.65280000     -71.66410000
S      -46.13190000     -29.80300000     -70.52890000
S      -47.89860000     -35.34100000     -69.78690000
C      -44.84250000     -30.91260000     -71.18800000
H      -45.16870000     -31.26820000     -72.18370000
H      -43.96260000     -30.32620000     -71.37060000
C      -46.33890000     -35.24530000     -70.81120000
H      -46.08040000     -34.23130000     -71.19240000
H      -46.43600000     -35.96720000     -71.65790000
C      -45.13680000     -35.52420000     -69.92030000
H      -45.12230000     -34.83510000     -69.03560000
H      -45.20490000     -36.49540000     -69.36450000
C      -44.54490000     -32.15710000     -70.32550000
H      -45.40130000     -32.81320000     -70.35560000
H      -44.44050000     -31.79220000     -69.26340000
C      -43.29040000     -32.82320000     -70.74790000
C      -42.16780000     -32.10530000     -71.17370000
C      -43.09270000     -34.21650000     -70.98510000
H      -42.06380000     -31.00400000     -71.11650000
C      -41.87490000     -34.52960000     -71.55000000
C      -43.81980000     -35.39230000     -70.64990000
C      -43.03700000     -36.49510000     -70.89470000
S      -40.92620000     -33.12450000     -71.85280000
S      -41.54100000     -36.21480000     -71.72310000
H      -43.33070000     -37.54700000     -70.72490000
