40
Properties=species:S:1:pos:R:3 #=T CELL(abcABC):=T 1.889726e+02=T 90.00000=T Traj:=T positionsangstrom=T Step:=T 0=T Bead:=T pbc="F F F"
C      -48.80830000     -34.20130000     -72.69570000
C      -48.54080000     -33.83530000     -71.40720000
C      -48.18360000     -32.48560000     -71.13700000
C      -47.97970000     -31.53530000     -72.17370000
C      -48.26960000     -32.00760000     -73.42850000
C      -48.65590000     -33.31820000     -73.70470000
H      -49.11440000     -35.21030000     -72.89260000
H      -47.93310000     -32.14130000     -70.12580000
H      -48.26750000     -31.29310000     -74.30410000
H      -48.79910000     -33.58000000     -74.73940000
C      -47.49940000     -30.11890000     -72.07460000
H      -48.47640000     -29.60450000     -71.88690000
H      -47.19490000     -29.70810000     -73.07640000
C      -48.66520000     -34.89380000     -70.27760000
H      -49.67180000     -34.76080000     -69.80750000
H      -48.62840000     -35.87500000     -70.73570000
S      -46.38710000     -29.79510000     -70.60580000
S      -47.49310000     -34.73800000     -68.86970000
C      -44.83610000     -30.52960000     -71.22460000
H      -44.97760000     -30.79140000     -72.33050000
H      -44.06440000     -29.69510000     -71.08210000
C      -46.04230000     -35.11400000     -69.88780000
H      -45.99590000     -34.52640000     -70.78020000
H      -46.08620000     -36.19900000     -70.16660000
C      -44.74020000     -34.94670000     -69.17750000
H      -44.65480000     -33.91970000     -68.87790000
H      -44.56880000     -35.74860000     -68.35920000
C      -44.48410000     -31.86950000     -70.62760000
H      -45.33540000     -32.51950000     -70.69090000
H      -44.34360000     -31.77060000     -69.57790000
C      -43.27160000     -32.67710000     -71.32230000
C      -42.46410000     -32.08730000     -72.24590000
C      -43.08190000     -34.10220000     -71.14010000
H      -42.36180000     -31.10440000     -72.56870000
C      -42.09950000     -34.52290000     -72.02070000
C      -43.55500000     -35.14390000     -70.23240000
C      -43.11020000     -36.36190000     -70.58230000
S      -41.49450000     -33.27650000     -73.09860000
S      -41.99850000     -36.29670000     -71.92110000
H      -43.34280000     -37.31120000     -70.08750000
