40
Properties=species:S:1:pos:R:3 #=T CELL(abcABC):=T 1.889726e+02=T 90.00000=T Traj:=T positionsangstrom=T Step:=T 0=T Bead:=T pbc="F F F"
C      -41.31000000     -31.63550000     -71.02090000
C      -42.65920000     -31.26700000     -70.72780000
C      -43.65200000     -31.17910000     -71.73110000
C      -43.21020000     -31.45330000     -73.07560000
C      -41.87920000     -31.84530000     -73.36110000
C      -40.96560000     -31.99980000     -72.33810000
H      -40.60270000     -31.66620000     -70.26530000
H      -44.61880000     -30.87650000     -71.46610000
H      -41.57330000     -32.08730000     -74.40870000
H      -39.94600000     -32.24560000     -72.55040000
C      -44.18500000     -31.17040000     -74.23810000
H      -43.96080000     -31.92750000     -75.04490000
H      -43.83930000     -30.25090000     -74.79690000
C      -42.89530000     -30.92130000     -69.22220000
H      -42.50680000     -31.68800000     -68.51380000
H      -42.49000000     -29.92760000     -68.97830000
S      -45.93810000     -31.07080000     -73.76050000
S      -44.68670000     -30.78150000     -68.78250000
C      -46.60120000     -32.78960000     -73.53390000
H      -47.44070000     -32.67700000     -72.89350000
H      -46.97020000     -33.16320000     -74.55490000
C      -45.31350000     -32.50860000     -68.67990000
H      -45.73690000     -32.66090000     -67.62810000
H      -44.52090000     -33.18620000     -68.82290000
C      -46.26100000     -32.87410000     -69.88340000
H      -47.17090000     -32.33230000     -69.97500000
H      -45.78070000     -32.56120000     -70.77980000
C      -45.58740000     -33.80280000     -73.01460000
H      -44.91230000     -33.31550000     -72.26890000
H      -44.97980000     -34.08600000     -73.87690000
C      -46.22370000     -35.05770000     -72.38430000
C      -46.46500000     -36.18770000     -73.11910000
C      -46.64410000     -35.19180000     -71.00820000
H      -45.95670000     -36.38580000     -74.12240000
C      -47.29470000     -36.42850000     -70.76320000
C      -46.65770000     -34.35560000     -69.88740000
C      -47.14170000     -34.94660000     -68.72410000
S      -47.27400000     -37.49410000     -72.17390000
S      -47.77400000     -36.63020000     -69.06500000
H      -47.23520000     -34.51260000     -67.71540000
