40
Properties=species:S:1:pos:R:3 #=T CELL(abcABC):=T 1.889726e+02=T 90.00000=T Traj:=T positionsangstrom=T Step:=T 0=T Bead:=T pbc="F F F"
C      -48.86020000     -34.00010000     -72.68440000
C      -48.87520000     -33.67050000     -71.35370000
C      -48.47540000     -32.34840000     -70.99630000
C      -48.18610000     -31.39060000     -71.97360000
C      -48.06440000     -31.83330000     -73.32480000
C      -48.46770000     -33.08790000     -73.68660000
H      -49.09670000     -35.03150000     -73.00710000
H      -48.49700000     -32.11440000     -69.94380000
H      -47.78530000     -31.06920000     -74.06020000
H      -48.37400000     -33.42830000     -74.71010000
C      -47.82360000     -29.96170000     -71.60870000
H      -48.57210000     -29.52090000     -71.02220000
H      -47.70910000     -29.38030000     -72.56130000
C      -49.24290000     -34.64070000     -70.20220000
H      -49.81220000     -34.07070000     -69.52610000
H      -49.88000000     -35.44860000     -70.56840000
S      -46.39130000     -29.98340000     -70.38570000
S      -47.65550000     -35.13260000     -69.34840000
C      -44.97440000     -30.73050000     -71.32960000
H      -45.35440000     -31.19660000     -72.21130000
H      -44.31880000     -29.93130000     -71.66810000
C      -46.29470000     -35.06730000     -70.61790000
H      -46.44400000     -34.11200000     -71.19110000
H      -46.29590000     -35.87900000     -71.40420000
C      -44.96860000     -35.18980000     -69.78720000
H      -44.86800000     -34.45610000     -68.99630000
H      -44.99530000     -36.15390000     -69.16790000
C      -44.24390000     -31.82210000     -70.42320000
H      -45.08200000     -32.37230000     -69.98970000
H      -43.83550000     -31.29340000     -69.52260000
C      -43.26380000     -32.68370000     -71.18220000
C      -42.31980000     -32.10070000     -71.99190000
C      -43.04280000     -34.13900000     -71.23500000
H      -42.33380000     -31.06550000     -72.25710000
C      -41.90070000     -34.55110000     -71.94570000
C      -43.70230000     -35.24440000     -70.61690000
C      -43.08910000     -36.42780000     -70.87840000
S      -41.02400000     -33.12000000     -72.60750000
S      -41.64560000     -36.25060000     -71.96400000
H      -43.48330000     -37.40520000     -70.62210000
