40
Properties=species:S:1:pos:R:3 #=T CELL(abcABC):=T 1.889726e+02=T 90.00000=T Traj:=T positionsangstrom=T Step:=T 0=T Bead:=T pbc="F F F"
C      -48.80440000     -34.25240000     -72.75940000
C      -48.41880000     -33.85910000     -71.45210000
C      -48.01580000     -32.52260000     -71.21510000
C      -47.88870000     -31.50970000     -72.20600000
C      -48.25280000     -31.99190000     -73.46250000
C      -48.77730000     -33.29840000     -73.76730000
H      -49.18130000     -35.19720000     -73.03330000
H      -47.90030000     -32.19880000     -70.19650000
H      -48.13290000     -31.25740000     -74.33570000
H      -49.10920000     -33.47210000     -74.80330000
C      -47.61170000     -30.09360000     -71.86920000
H      -48.55730000     -29.61850000     -71.40000000
H      -47.33750000     -29.57150000     -72.71430000
C      -48.66080000     -34.75450000     -70.23400000
H      -49.64420000     -34.62270000     -69.75650000
H      -48.65530000     -35.79950000     -70.59300000
S      -46.27130000     -29.73140000     -70.66700000
S      -47.43090000     -34.59360000     -68.86430000
C      -44.79940000     -30.62960000     -71.38270000
H      -44.87930000     -30.59920000     -72.43360000
H      -44.00060000     -30.03880000     -71.08810000
C      -45.94190000     -35.26670000     -69.71610000
H      -45.96480000     -34.97190000     -70.76220000
H      -46.06530000     -36.41110000     -69.75890000
C      -44.62590000     -34.82300000     -69.08630000
H      -44.68750000     -33.73670000     -69.04750000
H      -44.50740000     -35.35950000     -68.13350000
C      -44.52380000     -31.96180000     -70.75700000
H      -45.51950000     -32.47400000     -70.74150000
H      -44.33960000     -31.79980000     -69.67030000
C      -43.46300000     -32.68520000     -71.45140000
C      -42.71280000     -32.15810000     -72.44460000
C      -43.17770000     -34.08700000     -71.07870000
H      -42.80590000     -31.17210000     -72.80580000
C      -42.24830000     -34.56180000     -72.03470000
C      -43.60220000     -35.16230000     -70.11020000
C      -43.05850000     -36.35970000     -70.42990000
S      -41.52400000     -33.39170000     -73.10420000
S      -42.00840000     -36.30990000     -71.84960000
H      -43.39740000     -37.29720000     -69.98600000
