40
Properties=species:S:1:pos:R:3 #=T CELL(abcABC):=T 1.889726e+02=T 90.00000=T Traj:=T positionsangstrom=T Step:=T 0=T Bead:=T pbc="F F F"
C      -48.74040000     -33.88770000     -72.79600000
C      -48.83790000     -33.59300000     -71.40560000
C      -48.66890000     -32.21110000     -71.00840000
C      -48.21530000     -31.23220000     -71.93360000
C      -48.16980000     -31.57080000     -73.29840000
C      -48.40870000     -32.89050000     -73.71170000
H      -49.01470000     -34.89790000     -73.08420000
H      -48.77630000     -31.90500000     -69.98440000
H      -47.79230000     -30.87600000     -73.99320000
H      -48.44390000     -33.12080000     -74.71470000
C      -47.73060000     -29.87380000     -71.45900000
H      -48.52330000     -29.32990000     -70.92260000
H      -47.44920000     -29.33990000     -72.43100000
C      -49.21280000     -34.63140000     -70.44050000
H      -49.79950000     -34.38960000     -69.59300000
H      -49.53720000     -35.58900000     -70.92980000
S      -46.21840000     -29.89450000     -70.42120000
S      -47.72410000     -35.26140000     -69.37120000
C      -45.15450000     -30.98550000     -71.43730000
H      -45.75800000     -31.35710000     -72.29330000
H      -44.29640000     -30.36500000     -71.85180000
C      -46.37530000     -35.21000000     -70.62270000
H      -46.44270000     -34.29400000     -71.10710000
H      -46.38280000     -35.97840000     -71.38250000
C      -45.01280000     -35.35440000     -69.86170000
H      -44.85910000     -34.66600000     -68.98060000
H      -45.07370000     -36.30860000     -69.26560000
C      -44.49560000     -32.04990000     -70.52590000
H      -45.11050000     -32.91030000     -70.42240000
H      -44.14610000     -31.61490000     -69.53920000
C      -43.27600000     -32.67440000     -71.19490000
C      -42.10920000     -32.04800000     -71.63220000
C      -43.10310000     -34.13370000     -71.20850000
H      -42.07390000     -31.01800000     -71.85540000
C      -41.96090000     -34.50900000     -71.92410000
C      -43.81150000     -35.27670000     -70.77480000
C      -43.18340000     -36.42420000     -71.17040000
S      -40.90690000     -33.19260000     -72.40860000
S      -41.61200000     -36.22060000     -71.87470000
H      -43.37430000     -37.31520000     -70.63140000
