40
Properties=species:S:1:pos:R:3 #=T CELL(abcABC):=T 1.889726e+02=T 90.00000=T Traj:=T positionsangstrom=T Step:=T 0=T Bead:=T pbc="F F F"
C      -41.64410000     -32.43000000     -71.35760000
C      -42.50360000     -31.38510000     -71.11830000
C      -43.28890000     -30.91920000     -72.21510000
C      -43.23790000     -31.48130000     -73.45870000
C      -42.31260000     -32.54580000     -73.72800000
C      -41.51840000     -33.02150000     -72.64870000
H      -40.96710000     -32.78720000     -70.61700000
H      -43.97780000     -30.11190000     -72.04050000
H      -42.27960000     -33.04700000     -74.67590000
H      -40.92000000     -33.99230000     -72.77530000
C      -44.11810000     -30.97800000     -74.55420000
H      -43.70060000     -31.40720000     -75.49070000
H      -44.10280000     -29.88680000     -74.58290000
C      -42.64740000     -30.74820000     -69.79100000
H      -41.86440000     -31.11740000     -69.13600000
H      -42.58950000     -29.65130000     -69.95030000
S      -45.90550000     -31.46560000     -74.49840000
S      -44.25040000     -30.89150000     -69.00060000
C      -46.06480000     -33.28540000     -73.91380000
H      -47.13420000     -33.39110000     -74.10550000
H      -45.58020000     -34.05130000     -74.62200000
C      -44.83600000     -32.63130000     -69.21050000
H      -44.41430000     -33.36360000     -68.48330000
H      -44.54710000     -32.90410000     -70.24160000
C      -46.37930000     -32.60380000     -69.14530000
H      -46.56760000     -32.27480000     -68.10420000
H      -46.97440000     -31.88230000     -69.72820000
C      -45.57730000     -33.55540000     -72.46990000
H      -45.88490000     -32.65210000     -71.83130000
H      -44.46510000     -33.43800000     -72.41090000
C      -46.12390000     -34.82940000     -71.81420000
C      -46.18920000     -36.02630000     -72.44330000
C      -46.80530000     -34.87950000     -70.55800000
H      -45.94340000     -36.14440000     -73.58150000
C      -47.39170000     -36.12920000     -70.25140000
C      -47.04990000     -33.95120000     -69.42870000
C      -47.79760000     -34.54010000     -68.41180000
S      -47.10770000     -37.26090000     -71.56410000
S      -48.21780000     -36.21370000     -68.75680000
H      -47.98880000     -34.17400000     -67.39900000
