40
Properties=species:S:1:pos:R:3 #=T CELL(abcABC):=T 1.889726e+02=T 90.00000=T Traj:=T positionsangstrom=T Step:=T 0=T Bead:=T pbc="F F F"
C      -41.62140000     -32.39900000     -71.23730000
C      -42.48110000     -31.31520000     -70.97580000
C      -43.41220000     -30.94700000     -71.97270000
C      -43.37110000     -31.51420000     -73.23590000
C      -42.45590000     -32.50710000     -73.55000000
C      -41.52430000     -32.90470000     -72.59620000
H      -40.77630000     -32.62170000     -70.58720000
H      -44.02390000     -30.10960000     -71.96270000
H      -42.36550000     -32.88390000     -74.56660000
H      -40.70660000     -33.63900000     -72.83000000
C      -44.35620000     -31.07940000     -74.24820000
H      -44.55340000     -31.85980000     -75.05660000
H      -44.25270000     -30.21630000     -74.87260000
C      -42.73840000     -30.92980000     -69.54520000
H      -42.26650000     -31.65110000     -68.77190000
H      -42.32910000     -29.88740000     -69.33230000
S      -45.95790000     -30.82750000     -73.37650000
S      -44.49430000     -30.82440000     -69.05820000
C      -46.65000000     -32.51310000     -73.31110000
H      -47.58790000     -32.44120000     -72.76050000
H      -46.87950000     -32.82390000     -74.28110000
C      -44.81790000     -32.61450000     -69.12410000
H      -44.65860000     -33.05120000     -68.14210000
H      -44.08820000     -33.07410000     -69.72950000
C      -46.32410000     -32.79690000     -69.61020000
H      -46.88740000     -32.26200000     -68.88850000
H      -46.51850000     -32.40960000     -70.58010000
C      -45.67830000     -33.60600000     -72.77070000
H      -44.97400000     -33.29530000     -71.97740000
H      -44.99430000     -33.76740000     -73.60380000
C      -46.31250000     -34.88500000     -72.27920000
C      -46.53040000     -36.00090000     -72.99900000
C      -46.78550000     -34.98960000     -70.92830000
H      -46.04450000     -36.16960000     -73.99710000
C      -47.24150000     -36.30550000     -70.67230000
C      -46.65020000     -34.21700000     -69.71360000
C      -47.08330000     -34.96400000     -68.64870000
S      -47.13370000     -37.36450000     -72.06230000
S      -47.66170000     -36.59060000     -68.99260000
H      -46.90090000     -34.73070000     -67.61690000
