40
Properties=species:S:1:pos:R:3 #=T CELL(abcABC):=T 1.889726e+02=T 90.00000=T Traj:=T positionsangstrom=T Step:=T 0=T Bead:=T pbc="F F F"
C      -41.55740000     -32.29460000     -71.27220000
C      -42.51810000     -31.33770000     -70.95260000
C      -43.44020000     -30.94820000     -72.01740000
C      -43.37430000     -31.53880000     -73.27900000
C      -42.37230000     -32.50490000     -73.55500000
C      -41.43980000     -32.80740000     -72.58050000
H      -40.88300000     -32.46820000     -70.48300000
H      -44.19000000     -30.13620000     -71.73880000
H      -42.33890000     -32.99610000     -74.53360000
H      -40.70300000     -33.55980000     -72.73870000
C      -44.29040000     -31.11140000     -74.42240000
H      -44.17810000     -31.83440000     -75.27480000
H      -43.99590000     -30.11300000     -74.80740000
C      -42.67230000     -30.91790000     -69.53900000
H      -42.21540000     -31.73220000     -68.94620000
H      -42.19980000     -29.87810000     -69.40310000
S      -46.09270000     -31.15140000     -74.00930000
S      -44.41160000     -30.66420000     -68.86730000
C      -46.42470000     -32.91860000     -73.69030000
H      -47.41400000     -32.83890000     -73.35130000
H      -46.47950000     -33.38680000     -74.62250000
C      -44.88680000     -32.45950000     -69.08620000
H      -44.74010000     -32.87380000     -68.12040000
H      -44.27960000     -32.96130000     -69.83160000
C      -46.39840000     -32.74130000     -69.52130000
H      -47.04780000     -32.23010000     -68.84050000
H      -46.57900000     -32.27000000     -70.47070000
C      -45.53620000     -33.65590000     -72.70360000
H      -45.24460000     -32.93720000     -71.95470000
H      -44.63640000     -33.99720000     -73.22540000
C      -46.29090000     -34.86210000     -72.16660000
C      -46.57850000     -35.99410000     -72.88490000
C      -46.63160000     -34.99040000     -70.74440000
H      -46.41510000     -36.19500000     -73.89540000
C      -47.15860000     -36.28860000     -70.51580000
C      -46.74600000     -34.18100000     -69.58170000
C      -47.15970000     -34.84840000     -68.47100000
S      -47.23820000     -37.33460000     -71.93610000
S      -47.71330000     -36.49410000     -68.83390000
H      -47.29690000     -34.34700000     -67.50250000
