40
Properties=species:S:1:pos:R:3 #=T CELL(abcABC):=T 1.889726e+02=T 90.00000=T Traj:=T positionsangstrom=T Step:=T 0=T Bead:=T pbc="F F F"
C      -41.63260000     -32.41350000     -71.25790000
C      -42.53050000     -31.34780000     -70.89340000
C      -43.34230000     -30.87150000     -71.94780000
C      -43.43270000     -31.45960000     -73.20950000
C      -42.69200000     -32.63110000     -73.40620000
C      -41.77270000     -33.04990000     -72.42100000
H      -40.82810000     -32.76090000     -70.60730000
H      -43.98730000     -30.00290000     -71.75590000
H      -42.60100000     -33.13790000     -74.33410000
H      -41.12290000     -33.79810000     -72.79690000
C      -44.43440000     -31.05180000     -74.23610000
H      -44.40060000     -31.68760000     -75.09070000
H      -44.15060000     -30.01980000     -74.53510000
C      -42.59740000     -30.91810000     -69.48220000
H      -41.89430000     -31.51600000     -68.89700000
H      -42.25190000     -29.91550000     -69.18280000
S      -46.17550000     -30.72960000     -73.66870000
S      -44.26730000     -31.05310000     -68.75610000
C      -46.83070000     -32.43650000     -73.18060000
H      -47.36970000     -32.25620000     -72.27780000
H      -47.48940000     -32.79510000     -73.98260000
C      -44.77920000     -32.77930000     -69.37600000
H      -44.47250000     -33.53200000     -68.69660000
H      -44.34110000     -33.03090000     -70.29930000
C      -46.31010000     -32.80700000     -69.43000000
H      -46.67840000     -32.57090000     -68.41400000
H      -46.65520000     -31.98540000     -70.04370000
C      -45.75330000     -33.50800000     -72.89100000
H      -45.05920000     -33.12320000     -72.17540000
H      -45.29740000     -33.77910000     -73.86560000
C      -46.29780000     -34.77130000     -72.28970000
C      -46.41270000     -35.88330000     -73.07390000
C      -46.70410000     -34.96060000     -70.93280000
H      -46.33900000     -35.90530000     -74.16330000
C      -47.09630000     -36.27690000     -70.69300000
C      -46.84850000     -34.15720000     -69.76870000
C      -47.24450000     -34.94130000     -68.66750000
S      -46.83370000     -37.32300000     -72.11420000
S      -47.66410000     -36.60150000     -69.07240000
H      -47.56310000     -34.56260000     -67.67900000
