40
Properties=species:S:1:pos:R:3 #=T CELL(abcABC):=T 1.889726e+02=T 90.00000=T Traj:=T positionsangstrom=T Step:=T 0=T Bead:=T pbc="F F F"
C      -41.40980000     -32.46600000     -70.88590000
C      -42.43640000     -31.56050000     -71.07130000
C      -43.10870000     -31.45020000     -72.26680000
C      -42.87280000     -32.29010000     -73.35210000
C      -41.84730000     -33.19880000     -73.13140000
C      -41.08800000     -33.26240000     -72.00380000
H      -40.88280000     -32.66090000     -69.94970000
H      -44.04210000     -30.86900000     -72.21420000
H      -41.63790000     -33.83970000     -74.02610000
H      -40.31580000     -34.04800000     -71.84310000
C      -43.52400000     -32.12180000     -74.76630000
H      -43.20140000     -33.05030000     -75.32470000
H      -43.17620000     -31.24070000     -75.34080000
C      -42.75720000     -30.67650000     -69.85030000
H      -42.35800000     -30.97340000     -68.81890000
H      -42.26240000     -29.67940000     -69.90200000
S      -45.33060000     -31.90340000     -74.84310000
S      -44.52430000     -30.36790000     -69.57080000
C      -45.79940000     -33.49890000     -74.00620000
H      -46.41520000     -34.07110000     -74.65880000
H      -44.91630000     -33.99930000     -73.76650000
C      -45.11290000     -32.13480000     -69.29410000
H      -44.83230000     -32.59260000     -68.33810000
H      -44.60400000     -32.73510000     -70.04670000
C      -46.65660000     -32.21980000     -69.46400000
H      -47.18340000     -31.73460000     -68.58900000
H      -46.98260000     -31.74180000     -70.40610000
C      -46.61110000     -33.28230000     -72.76270000
H      -47.51030000     -32.77220000     -72.90640000
H      -46.05100000     -32.55630000     -72.17890000
C      -46.86140000     -34.61070000     -71.92030000
C      -47.01960000     -35.80870000     -72.52970000
C      -47.11000000     -34.63850000     -70.52800000
H      -46.84810000     -35.94720000     -73.61900000
C      -47.36720000     -35.90730000     -70.03950000
C      -47.06890000     -33.71520000     -69.39840000
C      -47.41840000     -34.30040000     -68.20230000
S      -47.46420000     -37.04930000     -71.43210000
S      -47.91640000     -35.99830000     -68.38320000
H      -47.55130000     -33.75170000     -67.28280000
