40
Properties=species:S:1:pos:R:3 #=T CELL(abcABC):=T 1.889726e+02=T 90.00000=T Traj:=T positionsangstrom=T Step:=T 0=T Bead:=T pbc="F F F"
C      -42.12630000     -32.79840000     -70.56610000
C      -42.45980000     -31.53780000     -71.09010000
C      -42.77960000     -31.45110000     -72.48890000
C      -42.76310000     -32.61600000     -73.27480000
C      -42.48860000     -33.87370000     -72.67050000
C      -42.15340000     -33.94220000     -71.30990000
H      -41.84200000     -32.89350000     -69.47480000
H      -43.25040000     -30.55370000     -72.89740000
H      -42.57410000     -34.78020000     -73.27380000
H      -41.83790000     -34.83890000     -70.82890000
C      -43.27820000     -32.66790000     -74.71370000
H      -43.14340000     -33.59870000     -75.08310000
H      -42.66700000     -32.07730000     -75.31790000
C      -42.70340000     -30.24830000     -70.21460000
H      -41.99640000     -30.09900000     -69.34060000
H      -42.39710000     -29.37170000     -70.87950000
S      -44.98900000     -31.97480000     -74.93390000
S      -44.55550000     -30.18410000     -69.83890000
C      -45.97200000     -33.42550000     -74.18400000
H      -46.97680000     -33.39520000     -74.67230000
H      -45.44460000     -34.36470000     -74.39660000
C      -44.99730000     -31.83700000     -69.17250000
H      -44.79550000     -31.90680000     -68.07990000
H      -44.39540000     -32.56180000     -69.70490000
C      -46.42910000     -32.19170000     -69.44180000
H      -47.05650000     -31.66390000     -68.68060000
H      -46.64090000     -31.82440000     -70.41700000
C      -46.24930000     -33.22120000     -72.63610000
H      -46.89670000     -32.27270000     -72.48420000
H      -45.25350000     -33.08930000     -72.17560000
C      -46.83400000     -34.44960000     -71.94490000
C      -47.28890000     -35.59060000     -72.55560000
C      -46.88120000     -34.57230000     -70.52480000
H      -47.20240000     -35.60850000     -73.63770000
C      -47.46520000     -35.78340000     -70.13300000
C      -46.77020000     -33.68840000     -69.41190000
C      -47.06800000     -34.27090000     -68.21080000
S      -47.90220000     -36.77600000     -71.46820000
S      -47.53240000     -35.98710000     -68.35490000
H      -46.95090000     -33.79920000     -67.27140000
