40
Properties=species:S:1:pos:R:3 #=T CELL(abcABC):=T 1.889726e+02=T 90.00000=T Traj:=T positionsangstrom=T Step:=T 0=T Bead:=T pbc="F F F"
C      -41.63830000     -32.46450000     -70.85870000
C      -42.46910000     -31.40630000     -71.21710000
C      -43.05090000     -31.48490000     -72.54200000
C      -42.77610000     -32.49770000     -73.43920000
C      -41.82190000     -33.47490000     -73.04590000
C      -41.22310000     -33.41080000     -71.75760000
H      -41.19000000     -32.49100000     -69.89160000
H      -43.69710000     -30.64940000     -72.72750000
H      -41.42430000     -34.15890000     -73.75790000
H      -40.40200000     -34.09440000     -71.58540000
C      -43.36940000     -32.59880000     -74.87300000
H      -43.24160000     -33.60820000     -75.37890000
H      -42.76990000     -31.90580000     -75.48070000
C      -42.84200000     -30.39940000     -70.19670000
H      -42.15620000     -30.50530000     -69.33900000
H      -42.69760000     -29.37420000     -70.63370000
S      -45.17950000     -32.05440000     -74.80210000
S      -44.65220000     -30.29690000     -69.70820000
C      -46.02240000     -33.46820000     -74.05220000
H      -46.88250000     -33.77320000     -74.62080000
H      -45.42270000     -34.35530000     -74.10420000
C      -45.07320000     -32.09750000     -69.42840000
H      -44.59450000     -32.51360000     -68.49910000
H      -44.56460000     -32.53330000     -70.25840000
C      -46.58630000     -32.25800000     -69.40280000
H      -46.95060000     -31.67860000     -68.48510000
H      -46.98750000     -31.87010000     -70.37540000
C      -46.36760000     -33.24220000     -72.59870000
H      -47.10170000     -32.50810000     -72.58300000
H      -45.55600000     -32.85540000     -72.02260000
C      -46.94640000     -34.43470000     -71.88180000
C      -47.22950000     -35.63830000     -72.48800000
C      -47.10820000     -34.55230000     -70.42980000
H      -47.09550000     -36.12190000     -73.45800000
C      -47.52160000     -35.82040000     -70.00830000
C      -47.03310000     -33.67790000     -69.29210000
C      -47.17830000     -34.31060000     -68.08320000
S      -47.69060000     -36.93100000     -71.36890000
S      -47.67870000     -35.98310000     -68.26940000
H      -46.89940000     -33.84710000     -67.11990000
