40
Properties=species:S:1:pos:R:3 #=T CELL(abcABC):=T 1.889726e+02=T 90.00000=T Traj:=T positionsangstrom=T Step:=T 0=T Bead:=T pbc="F F F"
C      -42.08530000     -33.00420000     -73.18870000
C      -42.31310000     -34.14090000     -72.48220000
C      -43.30390000     -35.07660000     -72.87240000
C      -44.01600000     -34.85850000     -74.03340000
C      -43.82130000     -33.64550000     -74.75770000
C      -42.84840000     -32.72890000     -74.38020000
H      -41.32130000     -32.31810000     -72.95590000
H      -43.57620000     -36.00170000     -72.31550000
H      -44.51390000     -33.45390000     -75.62550000
H      -42.59150000     -31.82190000     -74.87330000
C      -45.08240000     -35.81090000     -74.48870000
H      -44.95880000     -36.78300000     -73.91810000
H      -44.94200000     -36.24120000     -75.49510000
C      -41.48080000     -34.29470000     -71.26320000
H      -40.61720000     -34.96340000     -71.44650000
H      -41.25040000     -33.26940000     -70.85200000
S      -46.74170000     -35.15720000     -74.46100000
S      -42.27320000     -35.25150000     -69.83780000
C      -47.07490000     -34.45220000     -72.67890000
H      -48.16770000     -34.43040000     -72.59200000
H      -46.81440000     -35.17540000     -71.90670000
C      -43.49190000     -33.99250000     -69.21010000
H      -43.23610000     -33.05180000     -69.62950000
H      -43.56670000     -33.90020000     -68.10360000
C      -44.94130000     -34.32580000     -69.67220000
H      -45.01800000     -34.51630000     -70.70440000
H      -45.18960000     -35.25340000     -69.20430000
C      -46.38790000     -33.06600000     -72.55450000
H      -46.33570000     -32.51180000     -73.53700000
H      -45.31260000     -33.26820000     -72.38550000
C      -47.03080000     -32.30270000     -71.40160000
C      -47.84870000     -31.28140000     -71.66520000
C      -46.72920000     -32.39390000     -70.01190000
H      -48.15470000     -31.05800000     -72.69150000
C      -47.45110000     -31.49290000     -69.22990000
C      -45.91040000     -33.23590000     -69.17200000
C      -46.05950000     -32.98380000     -67.81090000
S      -48.43280000     -30.40110000     -70.22320000
S      -47.10400000     -31.55580000     -67.49520000
H      -45.42390000     -33.36970000     -66.98980000
