40
Properties=species:S:1:pos:R:3 #=T CELL(abcABC):=T 1.889726e+02=T 90.00000=T Traj:=T positionsangstrom=T Step:=T 0=T Bead:=T pbc="F F F"
C      -41.62910000     -32.77150000     -71.27530000
C      -42.52780000     -31.74380000     -71.15080000
C      -43.09030000     -31.16230000     -72.34160000
C      -42.82560000     -31.66500000     -73.60820000
C      -41.96670000     -32.77240000     -73.69680000
C      -41.36440000     -33.24410000     -72.56880000
H      -41.19700000     -33.17840000     -70.30390000
H      -43.81690000     -30.35270000     -72.22660000
H      -41.79300000     -33.28890000     -74.60120000
H      -40.79370000     -34.13560000     -72.72820000
C      -43.64960000     -31.22190000     -74.79680000
H      -43.37330000     -31.73590000     -75.75570000
H      -43.64180000     -30.15590000     -74.89920000
C      -42.82780000     -31.00280000     -69.83630000
H      -42.37300000     -31.55570000     -68.99920000
H      -42.32090000     -30.05440000     -69.78240000
S      -45.51240000     -31.68830000     -74.65840000
S      -44.56680000     -30.63630000     -69.43540000
C      -45.65810000     -33.43560000     -73.91830000
H      -46.64400000     -33.71370000     -74.33990000
H      -44.83070000     -34.01610000     -74.42010000
C      -45.26210000     -32.22800000     -68.94320000
H      -45.07620000     -32.42080000     -67.88980000
H      -44.73370000     -33.03420000     -69.50280000
C      -46.75620000     -32.33090000     -69.33180000
H      -47.36560000     -31.70940000     -68.66770000
H      -46.89000000     -31.89140000     -70.36640000
C      -45.74960000     -33.43810000     -72.39140000
H      -46.19500000     -32.44910000     -72.20550000
H      -44.78750000     -33.29380000     -71.86850000
C      -46.34720000     -34.71510000     -71.76220000
C      -46.48020000     -35.91420000     -72.43380000
C      -46.92420000     -34.73460000     -70.36920000
H      -46.36640000     -36.22620000     -73.42780000
C      -47.34810000     -36.04600000     -70.05880000
C      -47.15440000     -33.75250000     -69.35140000
C      -47.80160000     -34.36680000     -68.25660000
S      -47.21350000     -37.14510000     -71.40940000
S      -48.21820000     -36.11210000     -68.48880000
H      -48.23210000     -33.81020000     -67.40660000
