40
Properties=species:S:1:pos:R:3 #=T CELL(abcABC):=T 1.889726e+02=T 90.00000=T Traj:=T positionsangstrom=T Step:=T 0=T Bead:=T pbc="F F F"
C      -45.24760000     -33.64150000     -75.24000000
C      -45.12080000     -34.74390000     -74.43880000
C      -43.92230000     -34.87680000     -73.72810000
C      -42.77990000     -34.08700000     -73.92050000
C      -42.93720000     -33.05460000     -74.80830000
C      -44.18740000     -32.77920000     -75.42940000
H      -46.15620000     -33.47300000     -75.84090000
H      -43.97620000     -35.73360000     -72.99560000
H      -42.22050000     -32.31110000     -74.99620000
H      -44.29160000     -31.99490000     -76.18470000
C      -41.57500000     -34.16040000     -73.00010000
H      -40.66040000     -34.19200000     -73.55260000
H      -41.63010000     -35.13250000     -72.42960000
C      -46.21400000     -35.86710000     -74.07590000
H      -46.16850000     -36.60540000     -74.83710000
H      -46.09020000     -36.47120000     -73.14330000
S      -41.34140000     -32.67030000     -71.92270000
S      -47.92600000     -35.20760000     -73.90960000
C      -42.41950000     -32.80540000     -70.49360000
H      -42.27840000     -33.76000000     -70.01470000
H      -41.86700000     -32.08800000     -69.79970000
C      -48.08680000     -34.55640000     -72.06150000
H      -47.64510000     -35.44960000     -71.49840000
H      -49.12910000     -34.42420000     -71.98250000
C      -47.21770000     -33.37690000     -71.69380000
H      -46.20630000     -33.60270000     -72.03630000
H      -47.44150000     -32.47330000     -72.27780000
C      -43.92160000     -32.33290000     -70.71650000
H      -44.44750000     -33.00710000     -71.48730000
H      -43.95650000     -31.34360000     -71.14710000
C      -44.80040000     -32.39620000     -69.46480000
C      -44.25950000     -32.13440000     -68.23530000
C      -46.21300000     -32.76970000     -69.38110000
H      -43.27150000     -31.82960000     -68.11830000
C      -46.64180000     -32.66860000     -68.07040000
C      -47.42220000     -33.07590000     -70.20960000
C      -48.56010000     -33.05850000     -69.48960000
S      -45.41080000     -32.21070000     -66.89410000
S      -48.31690000     -32.67580000     -67.73260000
H      -49.58390000     -33.17490000     -69.75710000
