40
Properties=species:S:1:pos:R:3 #=T CELL(abcABC):=T 1.889726e+02=T 90.00000=T Traj:=T positionsangstrom=T Step:=T 0=T Bead:=T pbc="F F F"
C      -42.23660000     -33.53700000     -70.61960000
C      -42.49460000     -32.20480000     -71.02250000
C      -42.81750000     -31.81020000     -72.34580000
C      -42.70760000     -32.78560000     -73.35250000
C      -42.58900000     -34.10290000     -72.95310000
C      -42.27730000     -34.52110000     -71.63790000
H      -42.04240000     -33.90820000     -69.58930000
H      -43.00610000     -30.73280000     -72.52650000
H      -42.73200000     -34.88500000     -73.66250000
H      -42.27760000     -35.54260000     -71.31940000
C      -43.09500000     -32.45850000     -74.68660000
H      -42.91780000     -33.38790000     -75.35870000
H      -42.52240000     -31.58260000     -75.08550000
C      -42.54330000     -31.10620000     -69.94300000
H      -42.15050000     -31.43800000     -68.99130000
H      -41.85480000     -30.31600000     -70.24410000
S      -44.91880000     -31.93930000     -74.92720000
S      -44.25970000     -30.33030000     -69.80710000
C      -45.89830000     -33.33480000     -74.12420000
H      -46.84210000     -33.47880000     -74.61840000
H      -45.27170000     -34.26580000     -74.37290000
C      -45.25270000     -31.75810000     -69.21870000
H      -45.10810000     -31.81560000     -68.15780000
H      -44.73440000     -32.70270000     -69.60510000
C      -46.78730000     -31.69800000     -69.66260000
H      -47.34440000     -31.03560000     -69.00450000
H      -46.89520000     -31.28050000     -70.67020000
C      -45.97640000     -33.21040000     -72.63470000
H      -46.60760000     -32.32290000     -72.46440000
H      -45.03720000     -32.85790000     -72.16650000
C      -46.55800000     -34.39150000     -71.87810000
C      -46.64040000     -35.71240000     -72.33650000
C      -47.11740000     -34.26670000     -70.56460000
H      -46.28260000     -36.00840000     -73.30160000
C      -47.43450000     -35.53900000     -70.05610000
C      -47.33520000     -33.16830000     -69.62380000
C      -47.87640000     -33.60490000     -68.43080000
S      -47.34780000     -36.84290000     -71.22360000
S      -48.08570000     -35.35830000     -68.42920000
H      -48.29560000     -33.05030000     -67.59940000
