40
Properties=species:S:1:pos:R:3 #=T CELL(abcABC):=T 1.889726e+02=T 90.00000=T Traj:=T positionsangstrom=T Step:=T 0=T Bead:=T pbc="F F F"
C      -42.33930000     -33.47540000     -70.66110000
C      -42.46630000     -32.20950000     -71.16980000
C      -42.53170000     -31.88000000     -72.50110000
C      -42.70690000     -32.94220000     -73.40210000
C      -42.58930000     -34.25440000     -72.98370000
C      -42.45950000     -34.51580000     -71.59790000
H      -42.21410000     -33.69960000     -69.62300000
H      -42.51480000     -30.87470000     -72.79040000
H      -42.68250000     -35.14280000     -73.64950000
H      -42.42080000     -35.50920000     -71.18430000
C      -42.99940000     -32.58030000     -74.85590000
H      -42.89230000     -33.42190000     -75.55670000
H      -42.36740000     -31.75900000     -75.14340000
C      -42.42970000     -31.09130000     -70.19640000
H      -42.10470000     -31.42920000     -69.23040000
H      -41.75130000     -30.25870000     -70.47380000
S      -44.77700000     -31.96790000     -74.87390000
S      -44.19550000     -30.41690000     -70.04420000
C      -45.66750000     -33.35110000     -73.99840000
H      -46.60790000     -33.47140000     -74.60360000
H      -45.18370000     -34.32860000     -74.08700000
C      -45.10290000     -31.91470000     -69.45360000
H      -44.67310000     -32.18200000     -68.47700000
H      -44.80660000     -32.75410000     -69.99720000
C      -46.57100000     -31.78160000     -69.46370000
H      -46.93990000     -31.13280000     -68.67650000
H      -46.89990000     -31.26390000     -70.41120000
C      -46.05710000     -33.06700000     -72.53040000
H      -46.84090000     -32.31260000     -72.43590000
H      -45.19920000     -32.52410000     -72.04940000
C      -46.47390000     -34.32040000     -71.67090000
C      -46.62480000     -35.59490000     -72.22420000
C      -47.04370000     -34.20200000     -70.35930000
H      -46.14730000     -35.94180000     -73.11110000
C      -47.61130000     -35.45230000     -69.98100000
C      -47.27920000     -33.13450000     -69.38350000
C      -48.12160000     -33.55230000     -68.33950000
S      -47.43780000     -36.73480000     -71.11940000
S      -48.45690000     -35.29920000     -68.46260000
H      -48.26430000     -32.95310000     -67.44480000
