40
Properties=species:S:1:pos:R:3 #=T CELL(abcABC):=T 1.889726e+02=T 90.00000=T Traj:=T positionsangstrom=T Step:=T 0=T Bead:=T pbc="F F F"
C      -41.41090000     -33.07010000     -70.94410000
C      -42.05770000     -32.02720000     -71.57740000
C      -42.56830000     -32.25560000     -72.86660000
C      -42.48810000     -33.53250000     -73.49320000
C      -41.86920000     -34.54610000     -72.77420000
C      -41.42700000     -34.35840000     -71.48340000
H      -41.00160000     -32.94540000     -69.96810000
H      -43.13740000     -31.59570000     -73.40620000
H      -42.01190000     -35.55450000     -73.15280000
H      -40.99880000     -35.22860000     -70.87880000
C      -43.09360000     -33.76670000     -74.82570000
H      -42.85960000     -34.82480000     -75.09850000
H      -42.66250000     -33.07560000     -75.51380000
C      -42.17380000     -30.67340000     -71.03650000
H      -41.47170000     -30.49000000     -70.23540000
H      -41.89070000     -29.92860000     -71.76290000
S      -44.90970000     -33.44640000     -74.90650000
S      -43.90260000     -30.20600000     -70.45050000
C      -45.50490000     -34.14900000     -73.36360000
H      -45.68390000     -35.25140000     -73.49280000
H      -44.75560000     -34.03970000     -72.59950000
C      -44.80350000     -31.83070000     -70.12410000
H      -44.45890000     -32.21270000     -69.15710000
H      -44.64150000     -32.52930000     -71.00090000
C      -46.37030000     -31.52140000     -70.07470000
H      -46.38170000     -30.59240000     -69.40670000
H      -46.71010000     -31.22730000     -71.03770000
C      -46.85690000     -33.51940000     -72.91950000
H      -47.52980000     -33.79700000     -73.80480000
H      -46.73490000     -32.45630000     -72.79880000
C      -47.42000000     -34.26850000     -71.71020000
C      -47.85840000     -35.53660000     -71.91260000
C      -47.45460000     -33.86010000     -70.31890000
H      -47.99170000     -36.02130000     -72.86620000
C      -48.01270000     -34.85740000     -69.51560000
C      -47.08370000     -32.70280000     -69.56160000
C      -47.44420000     -32.79440000     -68.21930000
S      -48.46180000     -36.24380000     -70.44320000
S      -48.10600000     -34.44780000     -67.82480000
H      -47.29710000     -32.15930000     -67.37870000
