40
Properties=species:S:1:pos:R:3 #=T CELL(abcABC):=T 1.889726e+02=T 90.00000=T Traj:=T positionsangstrom=T Step:=T 0=T Bead:=T pbc="F F F"
C      -41.21230000     -32.98290000     -70.94800000
C      -41.91520000     -31.94580000     -71.57540000
C      -42.50440000     -32.21220000     -72.84950000
C      -42.47530000     -33.46920000     -73.36790000
C      -41.90830000     -34.49590000     -72.63260000
C      -41.20450000     -34.27910000     -71.42910000
H      -40.66400000     -32.71500000     -70.07900000
H      -42.91280000     -31.35450000     -73.43970000
H      -41.97020000     -35.45740000     -73.09380000
H      -40.83950000     -35.18110000     -70.93630000
C      -43.08640000     -33.86920000     -74.77200000
H      -42.84890000     -34.90670000     -75.05770000
H      -42.66720000     -33.27390000     -75.59870000
C      -42.16050000     -30.68370000     -70.84230000
H      -41.81680000     -30.85260000     -69.82170000
H      -41.64330000     -29.80690000     -71.33500000
S      -44.92020000     -33.66140000     -74.87940000
S      -43.97200000     -30.22430000     -70.78910000
C      -45.53740000     -34.17770000     -73.21670000
H      -45.62810000     -35.27760000     -73.09580000
H      -44.74860000     -34.00890000     -72.50120000
C      -44.74110000     -31.80030000     -70.29530000
H      -44.13130000     -32.13770000     -69.46210000
H      -44.62650000     -32.50380000     -71.11070000
C      -46.19680000     -31.56140000     -70.00640000
H      -46.41600000     -30.85000000     -69.24480000
H      -46.67330000     -31.07850000     -70.88130000
C      -46.79590000     -33.37360000     -72.80380000
H      -47.54830000     -33.22770000     -73.60280000
H      -46.42030000     -32.49820000     -72.25560000
C      -47.49260000     -34.27640000     -71.75020000
C      -48.09050000     -35.47250000     -71.96580000
C      -47.49750000     -33.85820000     -70.31470000
H      -48.08750000     -36.02780000     -72.88290000
C      -48.14550000     -34.81230000     -69.54810000
C      -46.98810000     -32.76630000     -69.55640000
C      -47.27610000     -32.91520000     -68.20460000
S      -48.58010000     -36.24890000     -70.42030000
S      -48.20760000     -34.34530000     -67.83170000
H      -47.01500000     -32.24430000     -67.41440000
