40
Properties=species:S:1:pos:R:3 #=T CELL(abcABC):=T 1.889726e+02=T 90.00000=T Traj:=T positionsangstrom=T Step:=T 0=T Bead:=T pbc="F F F"
C      -42.07430000     -33.19490000     -73.32970000
C      -42.23320000     -34.45190000     -72.62490000
C      -43.28910000     -35.33490000     -73.03370000
C      -44.16390000     -34.96600000     -74.05780000
C      -43.97710000     -33.76850000     -74.73540000
C      -42.94710000     -32.86040000     -74.35630000
H      -41.25650000     -32.55940000     -72.90700000
H      -43.54570000     -36.11680000     -72.31990000
H      -44.46520000     -33.54990000     -75.64390000
H      -42.78860000     -31.87130000     -74.86010000
C      -45.28730000     -35.82070000     -74.49090000
H      -45.36480000     -36.84580000     -74.17800000
H      -45.21960000     -35.83210000     -75.55680000
C      -41.30710000     -34.87970000     -71.58850000
H      -40.80720000     -35.83010000     -71.92840000
H      -40.51330000     -34.14580000     -71.43420000
S      -46.90080000     -34.96440000     -74.31750000
S      -42.14680000     -35.25120000     -69.88520000
C      -46.95880000     -34.42570000     -72.52340000
H      -47.95710000     -34.64940000     -72.11270000
H      -46.25300000     -35.13570000     -71.99260000
C      -43.31920000     -33.82770000     -69.45990000
H      -43.07820000     -32.92590000     -70.03510000
H      -43.15880000     -33.66190000     -68.43770000
C      -44.85910000     -34.11960000     -69.63570000
H      -45.00120000     -34.36990000     -70.65770000
H      -45.06000000     -34.91160000     -68.97960000
C      -46.35210000     -33.03620000     -72.46340000
H      -46.43360000     -32.50040000     -73.41230000
H      -45.24940000     -33.09090000     -72.23990000
C      -47.01040000     -32.26690000     -71.35710000
C      -48.03120000     -31.39650000     -71.61110000
C      -46.69880000     -32.25340000     -69.97570000
H      -48.47840000     -31.10960000     -72.54040000
C      -47.44930000     -31.35650000     -69.18880000
C      -45.77190000     -32.95990000     -69.21970000
C      -45.82810000     -32.66290000     -67.87600000
S      -48.61010000     -30.48930000     -70.10140000
S      -47.04680000     -31.44960000     -67.43340000
H      -45.29840000     -33.09520000     -67.09160000
