40
Properties=species:S:1:pos:R:3 #=T CELL(abcABC):=T 1.889726e+02=T 90.00000=T Traj:=T positionsangstrom=T Step:=T 0=T Bead:=T pbc="F F F"
C      -41.71950000     -33.15730000     -70.88200000
C      -42.27620000     -32.08060000     -71.57480000
C      -42.58110000     -32.26440000     -72.91640000
C      -42.41510000     -33.52610000     -73.58410000
C      -41.86850000     -34.57970000     -72.80760000
C      -41.52290000     -34.38330000     -71.49870000
H      -41.44700000     -33.03180000     -69.81640000
H      -42.99110000     -31.45740000     -73.49680000
H      -41.57190000     -35.57220000     -73.24110000
H      -41.05900000     -35.15960000     -70.90760000
C      -43.03780000     -33.73190000     -74.94190000
H      -42.97400000     -34.78280000     -75.20240000
H      -42.57670000     -33.23060000     -75.81400000
C      -42.33010000     -30.68120000     -70.90280000
H      -41.50940000     -30.68530000     -70.11650000
H      -42.02860000     -30.02350000     -71.70490000
S      -44.83020000     -33.26520000     -75.03470000
S      -43.86360000     -30.13680000     -70.18490000
C      -45.46140000     -34.17690000     -73.45430000
H      -45.50250000     -35.26470000     -73.67030000
H      -44.69210000     -33.89390000     -72.71630000
C      -44.83850000     -31.69230000     -70.00240000
H      -44.60560000     -32.27890000     -69.07220000
H      -44.50460000     -32.45290000     -70.71710000
C      -46.38670000     -31.44210000     -69.99100000
H      -46.77180000     -30.72550000     -69.27850000
H      -46.74630000     -31.14990000     -70.93810000
C      -46.77630000     -33.54570000     -72.88590000
H      -47.47640000     -33.32790000     -73.66700000
H      -46.66440000     -32.56530000     -72.60370000
C      -47.35920000     -34.34050000     -71.75760000
C      -47.89180000     -35.54830000     -71.92630000
C      -47.41990000     -33.92900000     -70.37940000
H      -47.89490000     -36.07330000     -72.86150000
C      -47.95920000     -34.94690000     -69.55410000
C      -47.08670000     -32.72130000     -69.61280000
C      -47.33900000     -32.98080000     -68.25990000
S      -48.45960000     -36.30930000     -70.43690000
S      -48.08940000     -34.46070000     -67.89750000
H      -47.13770000     -32.27160000     -67.48430000
