40
Properties=species:S:1:pos:R:3 #=T CELL(abcABC):=T 1.889726e+02=T 90.00000=T Traj:=T positionsangstrom=T Step:=T 0=T Bead:=T pbc="F F F"
C      -41.56310000     -33.27310000     -70.77090000
C      -42.13380000     -32.09490000     -71.26850000
C      -42.55450000     -32.04940000     -72.63820000
C      -42.59900000     -33.20140000     -73.42820000
C      -42.20710000     -34.40350000     -72.80890000
C      -41.53890000     -34.38950000     -71.56210000
H      -41.07360000     -33.36620000     -69.81450000
H      -42.74780000     -30.96310000     -73.06630000
H      -42.32420000     -35.37150000     -73.22100000
H      -41.14830000     -35.32090000     -71.15060000
C      -43.15330000     -33.29920000     -74.85560000
H      -42.97690000     -34.34810000     -75.20390000
H      -42.57370000     -32.63270000     -75.49540000
C      -42.12800000     -30.83390000     -70.51200000
H      -41.48840000     -30.93370000     -69.62990000
H      -41.64210000     -30.04460000     -71.06450000
S      -44.95720000     -32.92960000     -75.06430000
S      -43.80800000     -30.23010000     -70.13940000
C      -45.73310000     -34.14200000     -73.89980000
H      -46.30580000     -34.92190000     -74.44710000
H      -44.88090000     -34.72300000     -73.43930000
C      -44.77730000     -31.67910000     -69.58930000
H      -44.68200000     -31.62280000     -68.46660000
H      -44.21960000     -32.61060000     -69.91070000
C      -46.25100000     -31.65200000     -69.96880000
H      -46.78130000     -30.81130000     -69.48520000
H      -46.33150000     -31.49410000     -71.07980000
C      -46.55990000     -33.47090000     -72.83040000
H      -47.33950000     -32.95550000     -73.31710000
H      -45.92400000     -32.81610000     -72.18480000
C      -47.21640000     -34.42800000     -71.84580000
C      -47.79810000     -35.59870000     -72.11110000
C      -47.38250000     -34.05570000     -70.44450000
H      -47.74890000     -36.17260000     -73.08470000
C      -48.01090000     -35.03130000     -69.71680000
C      -47.01920000     -32.90780000     -69.61240000
C      -47.39510000     -33.08430000     -68.28450000
S      -48.36300000     -36.47440000     -70.66040000
S      -48.23550000     -34.60380000     -68.03750000
H      -47.08050000     -32.33130000     -67.53350000
