40
Properties=species:S:1:pos:R:3 #=T CELL(abcABC):=T 1.889726e+02=T 90.00000=T Traj:=T positionsangstrom=T Step:=T 0=T Bead:=T pbc="F F F"
C      -41.76300000     -33.35590000     -70.12740000
C      -42.23630000     -32.35070000     -70.92450000
C      -42.45440000     -32.62480000     -72.26500000
C      -42.45620000     -33.96450000     -72.70720000
C      -42.06550000     -35.01240000     -71.90500000
C      -41.72260000     -34.68070000     -70.58280000
H      -41.31770000     -33.16480000     -69.11670000
H      -42.93280000     -31.92570000     -73.03430000
H      -41.93060000     -36.03950000     -72.37090000
H      -41.33410000     -35.40390000     -69.90850000
C      -42.67580000     -34.07090000     -74.17510000
H      -42.48650000     -35.08060000     -74.48470000
H      -41.91560000     -33.39970000     -74.67690000
C      -42.43380000     -30.93250000     -70.36070000
H      -42.60170000     -31.03350000     -69.28870000
H      -41.60400000     -30.29380000     -70.48010000
S      -44.44470000     -33.81520000     -74.71890000
S      -43.75040000     -29.95820000     -71.15010000
C      -45.37570000     -34.67090000     -73.37380000
H      -45.38580000     -35.75970000     -73.63480000
H      -44.81270000     -34.62710000     -72.45920000
C      -45.28070000     -30.52830000     -70.35910000
H      -45.95230000     -29.68140000     -70.11330000
H      -45.06860000     -30.98420000     -69.35140000
C      -46.01400000     -31.63060000     -71.16510000
H      -46.67790000     -31.14750000     -71.84760000
H      -45.32330000     -32.19590000     -71.77550000
C      -46.85050000     -34.14320000     -73.31620000
H      -47.40430000     -34.49180000     -74.14510000
H      -46.90460000     -33.02630000     -73.34990000
C      -47.46790000     -34.59080000     -71.98520000
C      -48.08400000     -35.83660000     -71.89130000
C      -47.48270000     -33.80700000     -70.81760000
H      -48.26290000     -36.45740000     -72.72990000
C      -48.22700000     -34.44810000     -69.79540000
C      -46.92990000     -32.55210000     -70.32510000
C      -47.32100000     -32.27990000     -69.04660000
S      -48.59430000     -36.10060000     -70.19730000
S      -48.21390000     -33.57390000     -68.22830000
H      -47.05190000     -31.39390000     -68.53220000
