40
Properties=species:S:1:pos:R:3 #=T CELL(abcABC):=T 1.889726e+02=T 90.00000=T Traj:=T positionsangstrom=T Step:=T 0=T Bead:=T pbc="F F F"
C      -47.83600000     -36.01700000     -72.70400000
C      -47.70160000     -36.01610000     -71.31320000
C      -48.20080000     -34.91070000     -70.57340000
C      -48.70070000     -33.79200000     -71.20510000
C      -48.80480000     -33.77220000     -72.60750000
C      -48.30500000     -34.86910000     -73.31920000
H      -47.52460000     -36.87160000     -73.28770000
H      -48.10760000     -34.97610000     -69.46800000
H      -49.13630000     -32.84310000     -73.13860000
H      -48.31310000     -34.74030000     -74.37470000
C      -49.28530000     -32.65230000     -70.42740000
H      -49.49930000     -32.84520000     -69.39250000
H      -50.29890000     -32.45560000     -70.82420000
C      -47.07520000     -37.23080000     -70.62800000
H      -47.23580000     -37.16770000     -69.51890000
H      -47.42880000     -38.20250000     -71.01000000
S      -48.32680000     -31.04820000     -70.51030000
S      -45.17410000     -37.29320000     -70.94060000
C      -46.62670000     -31.44160000     -71.21830000
H      -46.70200000     -32.43810000     -71.74360000
H      -46.54720000     -30.66260000     -71.98650000
C      -44.50810000     -35.61790000     -70.67670000
H      -43.41140000     -35.74220000     -70.48930000
H      -44.90080000     -35.29380000     -69.66640000
C      -44.73420000     -34.57060000     -71.76530000
H      -44.92960000     -34.97150000     -72.74670000
H      -45.66310000     -34.05150000     -71.55730000
C      -45.61880000     -31.39360000     -70.10230000
H      -45.86610000     -32.27670000     -69.51510000
H      -45.83620000     -30.59340000     -69.42840000
C      -44.17450000     -31.31830000     -70.62600000
C      -43.44320000     -30.20380000     -70.23320000
C      -43.40680000     -32.28240000     -71.34790000
H      -43.93110000     -29.38480000     -69.69300000
C      -42.11060000     -31.83450000     -71.48080000
C      -43.58050000     -33.65860000     -71.88280000
C      -42.38680000     -34.07480000     -72.51090000
S      -41.83750000     -30.18920000     -70.95360000
S      -41.08950000     -32.89780000     -72.41010000
H      -42.19130000     -35.07780000     -72.88940000
