40
Properties=species:S:1:pos:R:3 #=T CELL(abcABC):=T 1.889726e+02=T 90.00000=T Traj:=T positionsangstrom=T Step:=T 0=T Bead:=T pbc="F F F"
C      -43.91700000     -35.37680000     -74.67460000
C      -43.98780000     -34.01700000     -74.31780000
C      -45.26960000     -33.32770000     -74.38240000
C      -46.43220000     -34.01400000     -74.67940000
C      -46.37400000     -35.40840000     -74.99630000
C      -45.14540000     -36.12530000     -75.00230000
H      -42.90540000     -35.75580000     -74.79360000
H      -45.24780000     -32.31160000     -74.14240000
H      -47.30700000     -35.90010000     -75.22550000
H      -44.96280000     -37.13340000     -75.20420000
C      -47.72720000     -33.30960000     -74.70820000
H      -48.43150000     -33.80400000     -75.41490000
H      -47.57310000     -32.28990000     -75.17090000
C      -42.68240000     -33.27430000     -74.14850000
H      -41.92940000     -33.94580000     -73.76350000
H      -42.20770000     -32.96070000     -75.08930000
S      -48.68770000     -33.09710000     -73.08360000
S      -42.79320000     -31.66980000     -73.20720000
C      -47.74440000     -34.10820000     -71.82690000
H      -48.49950000     -34.22500000     -71.09920000
H      -47.48350000     -34.96500000     -72.37430000
C      -43.18740000     -32.43190000     -71.58510000
H      -42.22730000     -32.73340000     -71.07720000
H      -43.69370000     -33.40790000     -71.64320000
C      -43.89310000     -31.49470000     -70.60910000
H      -43.18360000     -30.75130000     -70.53510000
H      -44.70720000     -30.90840000     -71.13420000
C      -46.53230000     -33.41060000     -71.18940000
H      -46.54020000     -32.31950000     -71.29940000
H      -45.65140000     -33.70620000     -71.75680000
C      -46.23870000     -33.65900000     -69.70500000
C      -46.98700000     -34.49050000     -68.93100000
C      -45.17680000     -33.07920000     -68.88580000
H      -47.75480000     -35.20560000     -69.23670000
C      -45.11700000     -33.50240000     -67.58340000
C      -44.14730000     -32.08070000     -69.25630000
C      -43.41770000     -31.67320000     -68.15900000
S      -46.47270000     -34.61610000     -67.25200000
S      -43.93930000     -32.60050000     -66.68850000
H      -42.57980000     -31.00350000     -68.19580000
