40
Properties=species:S:1:pos:R:3 #=T CELL(abcABC):=T 1.889726e+02=T 90.00000=T Traj:=T positionsangstrom=T Step:=T 0=T Bead:=T pbc="F F F"
C      -41.21660000     -32.31860000     -70.01410000
C      -42.20820000     -31.70520000     -70.85050000
C      -42.65610000     -32.34540000     -71.99040000
C      -42.02390000     -33.50380000     -72.46220000
C      -40.97250000     -34.12990000     -71.67080000
C      -40.70290000     -33.56140000     -70.43050000
H      -40.95410000     -31.81470000     -69.06730000
H      -43.39770000     -31.81910000     -72.51420000
H      -40.54740000     -35.01320000     -72.09020000
H      -40.04640000     -34.04920000     -69.75900000
C      -42.34260000     -34.03710000     -73.82840000
H      -42.06030000     -35.13740000     -73.81380000
H      -41.81430000     -33.51830000     -74.64710000
C      -42.66610000     -30.32950000     -70.42060000
H      -42.56170000     -30.21510000     -69.34330000
H      -42.02390000     -29.62630000     -70.94820000
S      -44.11030000     -33.82230000     -74.42290000
S      -44.42530000     -29.87590000     -71.06120000
C      -45.13170000     -34.77660000     -73.25960000
H      -45.07090000     -35.82300000     -73.42670000
H      -44.80420000     -34.53430000     -72.23730000
C      -45.50700000     -30.99110000     -70.12080000
H      -46.46530000     -30.46410000     -69.82180000
H      -44.97970000     -31.36890000     -69.20490000
C      -45.93200000     -32.15000000     -70.92560000
H      -46.40640000     -31.86190000     -71.82220000
H      -45.05430000     -32.74020000     -71.21870000
C      -46.59540000     -34.35590000     -73.35460000
H      -46.91000000     -34.63400000     -74.35410000
H      -46.49290000     -33.29740000     -73.38570000
C      -47.46470000     -34.89000000     -72.22910000
C      -48.41040000     -35.93470000     -72.32020000
C      -47.47620000     -34.21350000     -70.93100000
H      -48.53980000     -36.65330000     -73.12150000
C      -48.35150000     -34.86830000     -70.11460000
C      -46.83440000     -33.10410000     -70.23120000
C      -47.28570000     -32.91590000     -68.95210000
S      -49.26800000     -36.12950000     -70.79060000
S      -48.46810000     -34.17010000     -68.46810000
H      -46.98940000     -32.11070000     -68.38160000
