40
Properties=species:S:1:pos:R:3 #=T CELL(abcABC):=T 1.889726e+02=T 90.00000=T Traj:=T positionsangstrom=T Step:=T 0=T Bead:=T pbc="F F F"
C      -41.26320000     -32.41170000     -70.00400000
C      -42.08740000     -31.60250000     -70.89990000
C      -42.45680000     -32.11640000     -72.18060000
C      -42.12590000     -33.40820000     -72.52960000
C      -41.26530000     -34.18920000     -71.65370000
C      -40.95450000     -33.74770000     -70.36210000
H      -41.09390000     -32.14110000     -68.95760000
H      -43.24330000     -31.70720000     -72.73760000
H      -41.23090000     -35.26130000     -71.88570000
H      -40.24970000     -34.25930000     -69.70250000
C      -42.50680000     -34.08010000     -73.84330000
H      -42.39430000     -35.20290000     -73.64630000
H      -41.92090000     -33.75480000     -74.64560000
C      -42.68190000     -30.27130000     -70.42940000
H      -42.81040000     -30.29000000     -69.30830000
H      -42.01140000     -29.46580000     -70.55250000
S      -44.19060000     -33.82050000     -74.41900000
S      -44.26880000     -29.82020000     -71.12810000
C      -45.21420000     -34.75560000     -73.15250000
H      -44.97560000     -35.82910000     -73.43180000
H      -44.82810000     -34.33990000     -72.13480000
C      -45.34580000     -31.09480000     -70.25890000
H      -46.00050000     -30.54370000     -69.71830000
H      -44.74730000     -31.58220000     -69.50020000
C      -45.99860000     -32.13290000     -71.06250000
H      -46.65670000     -31.62340000     -71.87110000
H      -45.27280000     -32.70900000     -71.57230000
C      -46.63130000     -34.33620000     -73.41480000
H      -47.11270000     -34.81030000     -74.28430000
H      -46.70740000     -33.25020000     -73.43620000
C      -47.51650000     -34.85620000     -72.23260000
C      -48.48820000     -35.85240000     -72.30460000
C      -47.50990000     -34.27150000     -70.87740000
H      -48.56450000     -36.49240000     -73.16270000
C      -48.31380000     -34.93350000     -69.99580000
C      -46.83840000     -33.05060000     -70.26930000
C      -47.25480000     -32.87600000     -68.93880000
S      -49.15410000     -36.23840000     -70.71200000
S      -48.35340000     -34.15000000     -68.37970000
H      -46.94680000     -32.14700000     -68.30050000
