40
Properties=species:S:1:pos:R:3 #=T CELL(abcABC):=T 1.889726e+02=T 90.00000=T Traj:=T positionsangstrom=T Step:=T 0=T Bead:=T pbc="F F F"
C      -47.97260000     -35.27030000     -73.11390000
C      -47.70960000     -35.61390000     -71.78700000
C      -48.26900000     -34.84620000     -70.75660000
C      -48.96310000     -33.63370000     -71.03010000
C      -49.10520000     -33.21510000     -72.38740000
C      -48.67180000     -34.10910000     -73.39690000
H      -47.60890000     -35.97430000     -73.91460000
H      -48.03930000     -35.10000000     -69.74540000
H      -49.57260000     -32.22430000     -72.68270000
H      -48.84720000     -33.87980000     -74.42730000
C      -49.36160000     -32.69630000     -69.92820000
H      -49.31330000     -33.19220000     -68.94730000
H      -50.39750000     -32.28240000     -70.02580000
C      -46.80560000     -36.71550000     -71.42560000
H      -46.40900000     -36.59610000     -70.43810000
H      -47.34570000     -37.69240000     -71.41740000
S      -48.11910000     -31.39390000     -69.63180000
S      -45.29160000     -37.16680000     -72.46190000
C      -46.62030000     -31.88730000     -70.64130000
H      -46.95860000     -32.50030000     -71.47600000
H      -46.08300000     -30.99170000     -70.98390000
C      -43.96240000     -35.89910000     -72.27310000
H      -43.23560000     -36.18630000     -73.10990000
H      -43.32240000     -36.03800000     -71.36380000
C      -44.47940000     -34.53810000     -72.42490000
H      -44.88980000     -34.33630000     -73.44830000
H      -45.30070000     -34.46610000     -71.65950000
C      -45.55750000     -32.67480000     -69.71340000
H      -45.67650000     -33.77530000     -69.85540000
H      -45.88220000     -32.44870000     -68.77120000
C      -44.12670000     -32.22660000     -69.89700000
C      -43.57330000     -31.19160000     -69.22660000
C      -43.31170000     -32.54710000     -71.05610000
H      -44.08890000     -30.71020000     -68.34670000
C      -42.16650000     -31.76670000     -71.16030000
C      -43.37120000     -33.51150000     -72.14700000
C      -42.37030000     -33.31960000     -73.07020000
S      -41.99720000     -30.67680000     -69.77790000
S      -41.13040000     -32.13940000     -72.51370000
H      -42.25390000     -33.75530000     -74.08320000
