40
Properties=species:S:1:pos:R:3 #=T CELL(abcABC):=T 1.889726e+02=T 90.00000=T Traj:=T positionsangstrom=T Step:=T 0=T Bead:=T pbc="F F F"
C      -42.20270000     -33.18450000     -70.09210000
C      -42.34410000     -32.15050000     -71.00900000
C      -42.38000000     -32.36440000     -72.38950000
C      -42.38290000     -33.67780000     -72.89350000
C      -42.04010000     -34.76860000     -71.97040000
C      -42.01690000     -34.49640000     -70.60180000
H      -42.06060000     -32.88770000     -69.02880000
H      -42.67780000     -31.48810000     -73.02920000
H      -41.91260000     -35.80510000     -72.32750000
H      -41.79670000     -35.32310000     -69.91240000
C      -42.52680000     -34.02460000     -74.34440000
H      -42.05670000     -35.01340000     -74.53670000
H      -42.03460000     -33.39590000     -75.07410000
C      -42.47700000     -30.71960000     -70.46870000
H      -42.47710000     -30.78680000     -69.33680000
H      -41.65470000     -30.08590000     -70.73800000
S      -44.31860000     -34.05630000     -74.79500000
S      -43.95650000     -29.77390000     -71.04100000
C      -45.07320000     -34.74400000     -73.29980000
H      -45.03410000     -35.91070000     -73.24740000
H      -44.47350000     -34.35100000     -72.42880000
C      -45.31050000     -30.62290000     -70.11730000
H      -46.04330000     -29.87300000     -69.79010000
H      -44.94200000     -31.09190000     -69.17590000
C      -45.97910000     -31.67520000     -70.95410000
H      -46.52820000     -31.14780000     -71.74890000
H      -45.17960000     -32.34080000     -71.47420000
C      -46.58790000     -34.17210000     -73.19620000
H      -47.12130000     -34.38770000     -74.14650000
H      -46.43000000     -33.14120000     -73.22150000
C      -47.32760000     -34.66660000     -71.99290000
C      -48.05410000     -35.80730000     -71.96980000
C      -47.43850000     -33.89430000     -70.73950000
H      -48.16770000     -36.49840000     -72.74910000
C      -48.08140000     -34.57410000     -69.74990000
C      -46.91010000     -32.61870000     -70.18270000
C      -47.15190000     -32.52950000     -68.82610000
S      -48.80980000     -36.09910000     -70.39350000
S      -48.17920000     -33.83660000     -68.22460000
H      -46.71020000     -31.86200000     -68.14140000
