40
Properties=species:S:1:pos:R:3 #=T CELL(abcABC):=T 1.889726e+02=T 90.00000=T Traj:=T positionsangstrom=T Step:=T 0=T Bead:=T pbc="F F F"
C      -48.65000000     -34.29390000     -73.70970000
C      -47.92840000     -35.13290000     -72.91340000
C      -47.89240000     -34.86970000     -71.49450000
C      -48.66250000     -33.83530000     -70.92750000
C      -49.33930000     -32.96630000     -71.78530000
C      -49.38910000     -33.24360000     -73.13160000
H      -48.86860000     -34.53130000     -74.74820000
H      -47.32620000     -35.63060000     -70.89230000
H      -49.77250000     -32.01290000     -71.43060000
H      -49.91810000     -32.59040000     -73.74490000
C      -48.81780000     -33.76240000     -69.43380000
H      -48.27690000     -34.59840000     -68.92120000
H      -49.89230000     -33.71450000     -69.17930000
C      -47.26850000     -36.30210000     -73.49060000
H      -47.22120000     -37.22040000     -72.76830000
H      -47.83120000     -36.67270000     -74.38890000
S      -48.08810000     -32.19830000     -68.66950000
S      -45.58490000     -35.96740000     -74.21920000
C      -46.40430000     -32.07170000     -69.46390000
H      -46.62940000     -31.95010000     -70.57900000
H      -46.03270000     -31.07460000     -69.12840000
C      -44.67260000     -35.19180000     -72.81160000
H      -43.68460000     -35.61670000     -72.92070000
H      -45.06160000     -35.52160000     -71.84630000
C      -44.65970000     -33.61470000     -72.90950000
H      -44.52830000     -33.24890000     -73.95150000
H      -45.49720000     -33.19130000     -72.38450000
C      -45.35110000     -33.18130000     -69.13030000
H      -45.55270000     -34.12370000     -69.59310000
H      -45.33280000     -33.35570000     -68.06980000
C      -43.91040000     -32.77520000     -69.48650000
C      -43.00810000     -32.40570000     -68.47890000
C      -43.27900000     -32.71450000     -70.80230000
H      -43.42450000     -32.35320000     -67.48160000
C      -41.92950000     -32.24730000     -70.70890000
C      -43.48520000     -32.97640000     -72.20500000
C      -42.40270000     -32.66140000     -73.03400000
S      -41.43980000     -31.95400000     -69.08470000
S      -41.11580000     -31.84350000     -72.18800000
H      -42.45240000     -32.97330000     -74.04200000
