40
Properties=species:S:1:pos:R:3 #=T CELL(abcABC):=T 1.889726e+02=T 90.00000=T Traj:=T positionsangstrom=T Step:=T 0=T Bead:=T pbc="F F F"
C      -48.58500000     -34.13670000     -73.81730000
C      -47.97470000     -35.01810000     -72.93650000
C      -48.06530000     -34.82330000     -71.54020000
C      -48.89990000     -33.86440000     -70.97810000
C      -49.56030000     -32.99770000     -71.90270000
C      -49.43050000     -33.13160000     -73.28260000
H      -48.37920000     -34.14620000     -74.87840000
H      -47.53470000     -35.48160000     -70.86690000
H      -50.25070000     -32.29560000     -71.47060000
H      -49.78180000     -32.41240000     -74.01350000
C      -48.96980000     -33.81260000     -69.41770000
H      -48.64900000     -34.76840000     -68.96700000
H      -49.94440000     -33.59490000     -68.96630000
C      -47.16840000     -36.20780000     -73.37550000
H      -46.92660000     -36.76290000     -72.55160000
H      -47.74740000     -36.84110000     -74.01090000
S      -47.95330000     -32.45590000     -68.65980000
S      -45.73390000     -35.69980000     -74.39300000
C      -46.22430000     -32.15230000     -69.10830000
H      -46.17900000     -31.58260000     -70.00260000
H      -45.76910000     -31.65510000     -68.27360000
C      -44.47130000     -35.01050000     -73.12460000
H      -43.52270000     -35.01250000     -73.69450000
H      -44.35360000     -35.69340000     -72.29270000
C      -44.73260000     -33.51040000     -72.67180000
H      -45.11310000     -33.03650000     -73.58800000
H      -45.59150000     -33.68830000     -71.96320000
C      -45.32460000     -33.38110000     -69.43480000
H      -45.70830000     -33.86200000     -70.28270000
H      -45.50520000     -34.10550000     -68.59610000
C      -43.86240000     -32.88370000     -69.51920000
C      -43.10790000     -32.54420000     -68.42220000
C      -43.15460000     -32.68460000     -70.76210000
H      -43.45360000     -32.72060000     -67.38600000
C      -41.84540000     -32.21440000     -70.62460000
C      -43.42560000     -32.89530000     -72.13680000
C      -42.43940000     -32.52020000     -73.01460000
S      -41.48680000     -31.95460000     -68.93050000
S      -40.99270000     -32.03370000     -72.12620000
H      -42.58140000     -32.41560000     -74.10610000
