40
Properties=species:S:1:pos:R:3 #=T CELL(abcABC):=T 1.889726e+02=T 90.00000=T Traj:=T positionsangstrom=T Step:=T 0=T Bead:=T pbc="F F F"
C      -46.86710000     -34.79560000     -70.13300000
C      -47.55190000     -34.70600000     -71.39480000
C      -46.92390000     -35.25840000     -72.49100000
C      -45.59950000     -35.78490000     -72.38120000
C      -44.92630000     -35.81840000     -71.18180000
C      -45.58830000     -35.38740000     -70.03020000
H      -47.37020000     -34.47740000     -69.25050000
H      -47.41280000     -35.14840000     -73.46460000
H      -43.97590000     -36.34670000     -71.06090000
H      -45.12420000     -35.36900000     -69.08710000
C      -44.86540000     -36.22090000     -73.64210000
H      -45.38450000     -37.04560000     -74.18040000
H      -43.88050000     -36.73810000     -73.42320000
C      -48.87180000     -34.06070000     -71.50390000
H      -49.03120000     -33.50910000     -72.39510000
H      -49.78070000     -34.78220000     -71.35680000
S      -44.72650000     -34.82840000     -74.85850000
S      -49.03540000     -32.60470000     -70.22650000
C      -43.24940000     -33.81070000     -74.22500000
H      -42.71180000     -34.50600000     -73.53900000
H      -42.64290000     -33.63890000     -75.14750000
C      -48.03950000     -31.28650000     -71.17470000
H      -48.01170000     -30.42470000     -70.48000000
H      -48.61950000     -31.03370000     -72.11980000
C      -46.69620000     -31.63530000     -71.71070000
H      -46.68240000     -32.53850000     -72.29230000
H      -46.24110000     -30.80800000     -72.29840000
C      -43.75380000     -32.53300000     -73.44970000
H      -44.82260000     -32.35330000     -73.60070000
H      -43.34970000     -31.65940000     -73.96580000
C      -43.43460000     -32.56060000     -72.00500000
C      -42.14970000     -32.88480000     -71.62520000
C      -44.30150000     -32.20040000     -70.85310000
H      -41.40470000     -33.35180000     -72.30050000
C      -43.56980000     -32.32800000     -69.72280000
C      -45.65180000     -31.75380000     -70.57060000
C      -45.88790000     -31.46970000     -69.27160000
S      -41.88690000     -32.77740000     -69.87710000
S      -44.43900000     -31.83260000     -68.25870000
H      -46.78760000     -31.14250000     -68.76840000
