40
Properties=species:S:1:pos:R:3 #=T CELL(abcABC):=T 1.889726e+02=T 90.00000=T Traj:=T positionsangstrom=T Step:=T 0=T Bead:=T pbc="F F F"
C      -49.38480000     -32.36370000     -70.59020000
C      -48.57960000     -32.62350000     -69.39750000
C      -47.48520000     -31.77700000     -69.25920000
C      -47.25930000     -30.66220000     -70.08540000
C      -48.07180000     -30.42180000     -71.20470000
C      -49.18810000     -31.26540000     -71.40310000
H      -50.24820000     -32.99290000     -70.84200000
H      -46.82500000     -31.98600000     -68.42380000
H      -47.91370000     -29.56010000     -71.81770000
H      -49.75550000     -31.15370000     -72.29600000
C      -45.96690000     -29.86450000     -69.92500000
H      -45.32290000     -30.29110000     -69.19570000
H      -46.10770000     -28.84720000     -69.62310000
C      -48.64990000     -33.80410000     -68.51950000
H      -48.03640000     -33.66940000     -67.58630000
H      -49.66500000     -33.97270000     -68.17870000
S      -45.07370000     -29.71930000     -71.52810000
S      -48.09330000     -35.29740000     -69.53670000
C      -44.72910000     -31.46700000     -71.98670000
H      -45.66010000     -31.94930000     -72.34050000
H      -44.05200000     -31.31060000     -72.93040000
C      -46.31340000     -34.95540000     -70.11210000
H      -45.78540000     -35.80080000     -69.80070000
H      -45.87380000     -34.17110000     -69.55350000
C      -46.09250000     -34.76400000     -71.62800000
H      -46.87450000     -35.26930000     -72.22230000
H      -46.21900000     -33.71590000     -71.88660000
C      -43.87150000     -32.28660000     -71.03970000
H      -44.57510000     -32.83550000     -70.37920000
H      -43.28420000     -31.64460000     -70.44870000
C      -43.03230000     -33.25740000     -71.82110000
C      -41.70530000     -32.99800000     -72.14020000
C      -43.42050000     -34.61930000     -72.11540000
H      -41.14680000     -32.07950000     -71.94610000
C      -42.39660000     -35.35820000     -72.72190000
C      -44.75340000     -35.33100000     -72.15830000
C      -44.57390000     -36.60330000     -72.65800000
S      -40.88680000     -34.39290000     -72.89020000
S      -42.90610000     -36.92410000     -73.31730000
H      -45.47190000     -37.14980000     -72.85310000
