40
Properties=species:S:1:pos:R:3 #=T CELL(abcABC):=T 1.889726e+02=T 90.00000=T Traj:=T positionsangstrom=T Step:=T 0=T Bead:=T pbc="F F F"
C      -48.67160000     -33.47720000     -73.54690000
C      -47.88240000     -34.56250000     -73.15110000
C      -47.85440000     -34.82990000     -71.77240000
C      -48.50960000     -34.01300000     -70.86000000
C      -49.26420000     -32.88410000     -71.27930000
C      -49.23810000     -32.58200000     -72.64300000
H      -48.77860000     -33.22270000     -74.57000000
H      -47.44370000     -35.76640000     -71.31560000
H      -49.83400000     -32.36100000     -70.56870000
H      -49.75700000     -31.67430000     -73.03920000
C      -48.49160000     -34.43140000     -69.37130000
H      -47.86610000     -35.35830000     -69.18190000
H      -49.50260000     -34.72420000     -69.07720000
C      -47.15710000     -35.44910000     -74.05250000
H      -46.54470000     -36.28060000     -73.57220000
H      -47.90340000     -35.97840000     -74.68700000
S      -47.98390000     -33.11950000     -68.25060000
S      -45.99600000     -34.47180000     -75.15880000
C      -46.49550000     -32.49480000     -69.07260000
H      -46.83490000     -32.00700000     -70.00480000
H      -46.04680000     -31.77210000     -68.36520000
C      -44.67710000     -34.06650000     -73.99600000
H      -43.91400000     -33.70160000     -74.69290000
H      -44.22870000     -34.93660000     -73.56630000
C      -44.89560000     -33.07550000     -72.88230000
H      -45.31000000     -32.14600000     -73.29050000
H      -45.66410000     -33.44860000     -72.18000000
C      -45.45510000     -33.65260000     -69.29870000
H      -45.71980000     -34.36550000     -70.10560000
H      -45.46660000     -34.30640000     -68.34160000
C      -43.96500000     -33.22170000     -69.50900000
C      -43.15700000     -33.01740000     -68.38860000
C      -43.20050000     -32.95490000     -70.75170000
H      -43.52850000     -32.96190000     -67.39680000
C      -41.86670000     -32.70770000     -70.44390000
C      -43.47460000     -32.81390000     -72.17720000
C      -42.37120000     -32.44230000     -72.83940000
S      -41.47590000     -32.74100000     -68.76760000
S      -40.94810000     -32.31740000     -71.88210000
H      -42.42400000     -32.23040000     -73.96000000
