40
Properties=species:S:1:pos:R:3 #=T CELL(abcABC):=T 1.889726e+02=T 90.00000=T Traj:=T positionsangstrom=T Step:=T 0=T Bead:=T pbc="F F F"
C      -49.05260000     -32.84470000     -73.57510000
C      -48.31670000     -34.00840000     -73.44000000
C      -48.16230000     -34.60130000     -72.15790000
C      -48.54700000     -33.89710000     -71.00190000
C      -49.23930000     -32.65360000     -71.11540000
C      -49.45200000     -32.12980000     -72.41810000
H      -49.23200000     -32.45630000     -74.59610000
H      -47.64580000     -35.53740000     -72.17170000
H      -49.66270000     -32.18190000     -70.20850000
H      -49.98170000     -31.18470000     -72.39990000
C      -48.42910000     -34.57880000     -69.69840000
H      -47.93170000     -35.57190000     -69.70520000
H      -49.50610000     -34.75420000     -69.40690000
C      -47.75950000     -34.72160000     -74.70110000
H      -47.83160000     -35.77800000     -74.52610000
H      -48.23370000     -34.55170000     -75.61670000
S      -47.73520000     -33.50560000     -68.33480000
S      -45.98460000     -34.29160000     -75.18990000
C      -46.09360000     -32.95040000     -69.02360000
H      -46.27270000     -32.48230000     -69.95650000
H      -45.67270000     -32.23610000     -68.31020000
C      -44.78950000     -34.49260000     -73.63960000
H      -43.80060000     -34.84200000     -73.93690000
H      -45.28620000     -35.31590000     -73.04700000
C      -44.73540000     -33.15240000     -72.86370000
H      -44.78590000     -32.34620000     -73.53030000
H      -45.61440000     -32.98860000     -72.18620000
C      -45.17960000     -34.16800000     -69.24120000
H      -45.61460000     -34.72390000     -70.08410000
H      -45.23740000     -34.80730000     -68.34100000
C      -43.80910000     -33.72170000     -69.45840000
C      -42.94960000     -33.66040000     -68.36480000
C      -43.12930000     -33.10780000     -70.58940000
H      -43.37650000     -33.89460000     -67.29650000
C      -41.83920000     -32.74840000     -70.35930000
C      -43.47130000     -32.85890000     -72.03610000
C      -42.43880000     -32.19100000     -72.64700000
S      -41.34060000     -32.98590000     -68.70730000
S      -41.01470000     -31.92470000     -71.68160000
H      -42.40430000     -32.00120000     -73.70890000
