40
Properties=species:S:1:pos:R:3 #=T CELL(abcABC):=T 1.889726e+02=T 90.00000=T Traj:=T positionsangstrom=T Step:=T 0=T Bead:=T pbc="F F F"
C      -44.46670000     -30.45870000     -74.48370000
C      -45.46750000     -31.45240000     -74.32680000
C      -45.01400000     -32.82600000     -74.23770000
C      -43.64280000     -33.12400000     -74.23170000
C      -42.69140000     -32.14170000     -74.35490000
C      -43.09590000     -30.83100000     -74.55380000
H      -44.80990000     -29.45340000     -74.60360000
H      -45.71590000     -33.66390000     -74.20420000
H      -41.68750000     -32.51390000     -74.26140000
H      -42.36680000     -30.04360000     -74.66580000
C      -43.29540000     -34.55660000     -74.05220000
H      -42.99960000     -35.10380000     -75.00570000
H      -44.05800000     -35.15630000     -73.65590000
C      -46.89960000     -31.09690000     -74.42720000
H      -47.26380000     -30.35820000     -75.12350000
H      -47.53030000     -31.99700000     -74.64280000
S      -41.86180000     -34.69350000     -72.78740000
S      -47.61600000     -30.42030000     -72.83580000
C      -42.87370000     -35.18360000     -71.29130000
H      -43.37460000     -36.10390000     -71.59190000
H      -42.13710000     -35.60810000     -70.65470000
C      -47.89410000     -31.91900000     -71.75930000
H      -48.10710000     -32.77230000     -72.43880000
H      -48.80960000     -31.73020000     -71.10850000
C      -46.67210000     -32.31150000     -70.90960000
H      -45.80460000     -32.65750000     -71.51170000
H      -46.28780000     -31.41740000     -70.45920000
C      -43.76840000     -34.07570000     -70.64210000
H      -44.27950000     -33.63450000     -71.41320000
H      -43.02350000     -33.39990000     -70.21320000
C      -44.58920000     -34.60710000     -69.51200000
C      -44.01630000     -35.44930000     -68.51520000
C      -45.91720000     -34.21780000     -69.22560000
H      -43.06660000     -36.00490000     -68.57770000
C      -46.40930000     -34.90780000     -68.05360000
C      -46.88880000     -33.29250000     -69.77890000
C      -48.08320000     -33.36760000     -69.05070000
S      -45.24780000     -35.91250000     -67.35910000
S      -48.10530000     -34.59340000     -67.83140000
H      -49.03130000     -32.84970000     -69.20630000
