40
Properties=species:S:1:pos:R:3 #=T CELL(abcABC):=T 1.889726e+02=T 90.00000=T Traj:=T positionsangstrom=T Step:=T 0=T Bead:=T pbc="F F F"
C      -48.92920000     -32.52960000     -73.51580000
C      -48.27280000     -33.75230000     -73.36850000
C      -48.06990000     -34.37710000     -72.16800000
C      -48.66950000     -33.81010000     -71.01770000
C      -49.46480000     -32.64260000     -71.12360000
C      -49.53000000     -31.97190000     -72.37960000
H      -49.03290000     -32.13510000     -74.52890000
H      -47.55470000     -35.33270000     -72.05530000
H      -49.93550000     -32.19690000     -70.31320000
H      -50.19030000     -31.08970000     -72.57270000
C      -48.50920000     -34.63690000     -69.78530000
H      -47.76980000     -35.42550000     -70.04610000
H      -49.44620000     -35.02060000     -69.49210000
C      -47.76440000     -34.50430000     -74.64980000
H      -48.02370000     -35.61430000     -74.50770000
H      -48.37210000     -34.15810000     -75.50850000
S      -47.70460000     -33.65060000     -68.37580000
S      -45.98250000     -34.17560000     -75.02920000
C      -46.05890000     -33.19040000     -69.17580000
H      -46.24100000     -32.54620000     -70.08680000
H      -45.60060000     -32.51030000     -68.47610000
C      -45.05990000     -34.30950000     -73.46450000
H      -44.02650000     -34.59030000     -73.66340000
H      -45.51980000     -35.13160000     -72.90790000
C      -44.85140000     -33.06640000     -72.56480000
H      -45.14050000     -32.21810000     -73.22530000
H      -45.66320000     -32.88190000     -71.84820000
C      -45.07510000     -34.42530000     -69.40030000
H      -45.32830000     -34.93280000     -70.33250000
H      -45.12760000     -35.19060000     -68.60450000
C      -43.64830000     -33.94120000     -69.52220000
C      -42.72150000     -33.95620000     -68.45620000
C      -43.09040000     -33.18230000     -70.60840000
H      -42.95050000     -34.37790000     -67.44320000
C      -41.82470000     -32.78000000     -70.37920000
C      -43.48960000     -32.84100000     -71.94800000
C      -42.49690000     -32.31780000     -72.73390000
S      -41.21520000     -33.09120000     -68.81600000
S      -41.11010000     -31.90070000     -71.71030000
H      -42.58750000     -31.79060000     -73.67880000
