40
Properties=species:S:1:pos:R:3 #=T CELL(abcABC):=T 1.889726e+02=T 90.00000=T Traj:=T positionsangstrom=T Step:=T 0=T Bead:=T pbc="F F F"
C      -44.43550000     -30.47400000     -74.35580000
C      -45.44380000     -31.46460000     -74.21470000
C      -45.05090000     -32.85770000     -74.06410000
C      -43.70690000     -33.20600000     -74.14250000
C      -42.77250000     -32.24330000     -74.47780000
C      -43.12290000     -30.90330000     -74.58990000
H      -44.74020000     -29.43700000     -74.39580000
H      -45.75930000     -33.60510000     -73.84120000
H      -41.74860000     -32.62450000     -74.64080000
H      -42.40510000     -30.15780000     -74.88480000
C      -43.15930000     -34.63530000     -73.95830000
H      -42.85340000     -34.99660000     -75.03090000
H      -43.99400000     -35.31810000     -73.74220000
C      -46.87370000     -31.08700000     -74.31940000
H      -46.91220000     -30.40670000     -75.15180000
H      -47.39360000     -31.98900000     -74.58130000
S      -41.87020000     -34.83910000     -72.73430000
S      -47.68680000     -30.39410000     -72.81620000
C      -42.76190000     -35.22160000     -71.18440000
H      -43.33860000     -36.18180000     -71.30900000
H      -42.02930000     -35.27890000     -70.38770000
C      -47.89960000     -31.90360000     -71.75160000
H      -48.13640000     -32.74900000     -72.40430000
H      -48.79520000     -31.75410000     -71.11450000
C      -46.64940000     -32.13070000     -70.87480000
H      -45.73740000     -32.18870000     -71.45690000
H      -46.46430000     -31.26270000     -70.19720000
C      -43.80530000     -34.17840000     -70.76140000
H      -44.54940000     -34.05760000     -71.54810000
H      -43.37990000     -33.15580000     -70.62130000
C      -44.55710000     -34.58770000     -69.51830000
C      -44.02120000     -35.38710000     -68.55310000
C      -45.89580000     -34.07560000     -69.21950000
H      -43.11570000     -35.93350000     -68.62790000
C      -46.32400000     -34.67390000     -68.02700000
C      -46.88760000     -33.26720000     -69.87170000
C      -48.14960000     -33.49070000     -69.35690000
S      -45.25270000     -35.88030000     -67.41570000
S      -48.08360000     -34.53500000     -67.90640000
H      -49.02330000     -32.83250000     -69.49370000
