40
Properties=species:S:1:pos:R:3 #=T CELL(abcABC):=T 1.889726e+02=T 90.00000=T Traj:=T positionsangstrom=T Step:=T 0=T Bead:=T pbc="F F F"
C      -48.72150000     -33.00440000     -73.60460000
C      -48.17040000     -34.26910000     -73.36270000
C      -47.94520000     -34.70520000     -72.01920000
C      -48.51320000     -33.99610000     -70.93910000
C      -49.25880000     -32.85520000     -71.25120000
C      -49.33360000     -32.34610000     -72.53280000
H      -48.56770000     -32.56680000     -74.59740000
H      -47.46210000     -35.64370000     -71.76140000
H      -49.74770000     -32.31170000     -70.38810000
H      -49.69900000     -31.36340000     -72.63120000
C      -48.47390000     -34.53220000     -69.54930000
H      -47.89830000     -35.40490000     -69.59400000
H      -49.43820000     -34.86780000     -69.11920000
C      -47.48050000     -35.08330000     -74.45180000
H      -47.16910000     -36.11140000     -74.14730000
H      -48.16290000     -35.10880000     -75.37720000
S      -47.87220000     -33.32820000     -68.35770000
S      -45.88610000     -34.28240000     -75.04870000
C      -46.28300000     -32.81600000     -69.04500000
H      -46.44550000     -32.10970000     -69.90230000
H      -45.87500000     -32.20170000     -68.21340000
C      -44.81900000     -34.37500000     -73.58560000
H      -43.83690000     -34.35640000     -73.99390000
H      -44.99500000     -35.29180000     -73.11210000
C      -44.88630000     -33.08320000     -72.63750000
H      -45.09190000     -32.29310000     -73.39320000
H      -45.67740000     -33.16770000     -71.87700000
C      -45.39540000     -33.91200000     -69.43940000
H      -45.60820000     -34.45180000     -70.37530000
H      -45.44490000     -34.67710000     -68.62550000
C      -43.89170000     -33.53830000     -69.52850000
C      -43.08190000     -33.40710000     -68.38860000
C      -43.13640000     -33.04370000     -70.62710000
H      -43.21860000     -34.00600000     -67.41940000
C      -41.80300000     -32.67040000     -70.39260000
C      -43.48330000     -32.88830000     -72.01350000
C      -42.45260000     -32.43560000     -72.77830000
S      -41.45080000     -32.81640000     -68.70700000
S      -41.00320000     -32.08320000     -71.89110000
H      -42.53930000     -32.35520000     -73.80670000
