40
Properties=species:S:1:pos:R:3 #=T CELL(abcABC):=T 1.889726e+02=T 90.00000=T Traj:=T positionsangstrom=T Step:=T 0=T Bead:=T pbc="F F F"
C      -48.82990000     -31.92170000     -72.48480000
C      -48.54020000     -33.29330000     -72.79610000
C      -48.35290000     -34.18070000     -71.71950000
C      -48.56820000     -33.77370000     -70.38320000
C      -48.75240000     -32.44070000     -70.08560000
C      -48.88120000     -31.55410000     -71.12690000
H      -48.93480000     -31.25240000     -73.30230000
H      -48.19750000     -35.26400000     -71.90980000
H      -48.82260000     -32.12600000     -69.01780000
H      -49.13590000     -30.54730000     -70.83860000
C      -48.49190000     -34.95880000     -69.36940000
H      -48.54120000     -35.80220000     -70.07580000
H      -49.43410000     -35.09040000     -68.91940000
C      -48.25800000     -33.84340000     -74.21210000
H      -48.42190000     -34.94360000     -74.22110000
H      -48.96110000     -33.47690000     -74.91910000
S      -47.22030000     -34.80200000     -68.06190000
S      -46.63140000     -33.29500000     -74.88020000
C      -45.75440000     -34.05180000     -68.90980000
H      -46.13990000     -33.08690000     -69.24820000
H      -45.12750000     -33.72110000     -68.05660000
C      -45.43640000     -33.60850000     -73.52540000
H      -44.54570000     -34.01030000     -73.95710000
H      -45.87960000     -34.40920000     -73.07410000
C      -45.20400000     -32.44560000     -72.59380000
H      -45.46940000     -31.50390000     -73.10490000
H      -45.81100000     -32.44710000     -71.71820000
C      -44.95340000     -34.84910000     -70.00090000
H      -45.56960000     -34.83200000     -70.93080000
H      -44.87510000     -35.89270000     -69.65730000
C      -43.54910000     -34.25430000     -70.20090000
C      -42.48970000     -34.64940000     -69.40090000
C      -43.14850000     -33.18810000     -71.13050000
H      -42.63540000     -35.34070000     -68.66890000
C      -41.80510000     -32.90820000     -71.02830000
C      -43.71640000     -32.46570000     -72.26030000
C      -42.81430000     -31.62790000     -72.84520000
S      -40.95830000     -33.80090000     -69.78830000
S      -41.16590000     -31.83370000     -72.14840000
H      -42.93630000     -30.79210000     -73.60360000
