40
Properties=species:S:1:pos:R:3 #=T CELL(abcABC):=T 1.889726e+02=T 90.00000=T Traj:=T positionsangstrom=T Step:=T 0=T Bead:=T pbc="F F F"
C      -48.61990000     -31.96100000     -72.32550000
C      -48.59230000     -33.31200000     -72.80520000
C      -48.63380000     -34.34970000     -71.83760000
C      -48.69890000     -34.05240000     -70.43380000
C      -48.87840000     -32.67250000     -70.02830000
C      -48.82580000     -31.69330000     -70.95930000
H      -48.62870000     -31.12210000     -73.03910000
H      -48.46770000     -35.40900000     -72.32220000
H      -48.84880000     -32.46630000     -68.97400000
H      -48.79080000     -30.65230000     -70.54620000
C      -48.54510000     -35.05460000     -69.30350000
H      -48.38600000     -36.05040000     -69.72860000
H      -49.27410000     -35.03950000     -68.48730000
C      -48.45270000     -33.56340000     -74.26470000
H      -48.41940000     -34.67330000     -74.48610000
H      -49.08270000     -33.07720000     -74.95810000
S      -46.99660000     -34.80760000     -68.22310000
S      -46.71490000     -32.97280000     -74.76380000
C      -45.63350000     -33.85630000     -69.03750000
H      -45.96290000     -32.88280000     -69.55570000
H      -44.93720000     -33.59190000     -68.26910000
C      -45.60270000     -33.58180000     -73.45890000
H      -44.57520000     -33.75850000     -73.92870000
H      -46.05510000     -34.54900000     -73.07290000
C      -45.26600000     -32.55570000     -72.33060000
H      -45.56680000     -31.57770000     -72.73200000
H      -45.84320000     -32.59820000     -71.39950000
C      -44.86620000     -34.79750000     -69.98750000
H      -45.35940000     -34.86380000     -70.96050000
H      -44.74250000     -35.74640000     -69.53380000
C      -43.46060000     -34.25850000     -70.21420000
C      -42.40900000     -34.64650000     -69.41860000
C      -43.02000000     -33.27430000     -71.18370000
H      -42.59340000     -35.33540000     -68.62240000
C      -41.67940000     -32.99560000     -71.10710000
C      -43.73500000     -32.51810000     -72.17380000
C      -42.96210000     -31.51410000     -72.64800000
S      -40.85290000     -34.00810000     -69.84920000
S      -41.30730000     -31.71150000     -72.28520000
H      -43.22190000     -30.85820000     -73.51180000
