40
Properties=species:S:1:pos:R:3 #=T CELL(abcABC):=T 1.889726e+02=T 90.00000=T Traj:=T positionsangstrom=T Step:=T 0=T Bead:=T pbc="F F F"
C      -44.47600000     -30.70870000     -74.76280000
C      -45.24590000     -31.85730000     -74.35450000
C      -44.45510000     -32.96320000     -73.88130000
C      -43.06500000     -33.00150000     -73.88230000
C      -42.33780000     -31.81990000     -74.28520000
C      -43.06950000     -30.74090000     -74.70840000
H      -44.91300000     -29.76500000     -75.09960000
H      -44.99780000     -33.87950000     -73.62550000
H      -41.27750000     -31.79160000     -74.12320000
H      -42.40570000     -29.88170000     -75.03450000
C      -42.27550000     -34.20940000     -73.56100000
H      -41.29630000     -34.21840000     -74.23630000
H      -42.79850000     -35.13400000     -73.71480000
C      -46.75450000     -31.91880000     -74.51060000
H      -47.07600000     -31.53660000     -75.48510000
H      -47.24880000     -32.92280000     -74.45140000
S      -41.44280000     -33.96120000     -71.89450000
S      -47.51050000     -30.72620000     -73.28150000
C      -42.56440000     -34.83260000     -70.70200000
H      -42.55980000     -35.90460000     -70.96470000
H      -42.12560000     -34.70240000     -69.67840000
C      -47.87650000     -31.88120000     -71.84130000
H      -48.28220000     -32.85700000     -72.18460000
H      -48.64940000     -31.38080000     -71.25420000
C      -46.66840000     -32.23690000     -70.92820000
H      -45.91530000     -32.74810000     -71.49060000
H      -46.20300000     -31.31420000     -70.58250000
C      -44.02420000     -34.31640000     -70.80620000
H      -44.38260000     -34.54360000     -71.80010000
H      -43.98670000     -33.25070000     -70.66820000
C      -44.94950000     -34.84590000     -69.72920000
C      -44.72340000     -35.97940000     -69.03660000
C      -46.25740000     -34.26700000     -69.35360000
H      -43.75640000     -36.47700000     -69.09410000
C      -46.87380000     -34.97380000     -68.26170000
C      -47.05140000     -33.11890000     -69.79260000
C      -48.21530000     -33.05490000     -69.13510000
S      -45.96370000     -36.43370000     -67.85640000
S      -48.32140000     -34.15270000     -67.75350000
H      -49.06950000     -32.35080000     -69.22600000
