40
Properties=species:S:1:pos:R:3 #=T CELL(abcABC):=T 1.889726e+02=T 90.00000=T Traj:=T positionsangstrom=T Step:=T 0=T Bead:=T pbc="F F F"
C      -44.59570000     -30.80350000     -74.48420000
C      -45.40870000     -31.95490000     -74.43460000
C      -44.80950000     -33.14170000     -74.24760000
C      -43.36240000     -33.22810000     -74.07850000
C      -42.59170000     -32.04370000     -74.18360000
C      -43.26280000     -30.84450000     -74.32280000
H      -45.09450000     -29.88460000     -74.44350000
H      -45.22420000     -34.15560000     -74.24540000
H      -41.52480000     -32.06490000     -74.08120000
H      -42.74240000     -29.86130000     -74.42080000
C      -42.68390000     -34.59540000     -73.87080000
H      -42.06480000     -34.78590000     -74.71370000
H      -43.41490000     -35.50710000     -73.99960000
C      -46.99270000     -31.88100000     -74.43110000
H      -47.48320000     -31.48380000     -75.36040000
H      -47.51590000     -32.74870000     -74.20140000
S      -41.59680000     -34.75910000     -72.33270000
S      -47.56700000     -30.54440000     -73.19150000
C      -42.80030000     -35.25800000     -71.08680000
H      -43.06020000     -36.30700000     -71.29150000
H      -42.18810000     -35.34320000     -70.21820000
C      -47.82400000     -31.38980000     -71.55650000
H      -48.66200000     -32.00290000     -71.59200000
H      -47.90870000     -30.63290000     -70.79930000
C      -46.63870000     -32.24830000     -71.12750000
H      -46.27280000     -32.89380000     -72.02040000
H      -45.80280000     -31.56280000     -71.08810000
C      -44.00210000     -34.32320000     -70.89190000
H      -44.62050000     -34.34560000     -71.84400000
H      -43.64580000     -33.27020000     -70.86590000
C      -44.79920000     -34.74280000     -69.67630000
C      -44.39050000     -35.64880000     -68.74660000
C      -45.98780000     -34.08180000     -69.25160000
H      -43.46670000     -36.20210000     -68.60850000
C      -46.53690000     -34.56960000     -68.07400000
C      -46.83680000     -33.07020000     -69.87340000
C      -48.03940000     -33.04160000     -69.19690000
S      -45.51450000     -35.75150000     -67.37890000
S      -48.21990000     -34.13660000     -67.86550000
H      -48.98030000     -32.55230000     -69.45400000
