40
Properties=species:S:1:pos:R:3 #=T CELL(abcABC):=T 1.889726e+02=T 90.00000=T Traj:=T positionsangstrom=T Step:=T 0=T Bead:=T pbc="F F F"
C      -48.50000000     -31.95200000     -72.58400000
C      -48.34050000     -33.33540000     -72.91350000
C      -48.39770000     -34.22410000     -71.82500000
C      -48.49590000     -33.82790000     -70.44480000
C      -48.69130000     -32.38540000     -70.26570000
C      -48.63250000     -31.47890000     -71.29740000
H      -48.34360000     -31.20200000     -73.38460000
H      -48.28090000     -35.22900000     -72.02440000
H      -48.89410000     -32.03850000     -69.27390000
H      -48.75230000     -30.41220000     -71.00630000
C      -48.44130000     -34.81090000     -69.36670000
H      -48.21670000     -35.79960000     -69.70510000
H      -49.40040000     -35.04880000     -68.80350000
C      -48.13560000     -34.00600000     -74.19440000
H      -48.35510000     -35.03360000     -74.12400000
H      -48.82110000     -33.47640000     -74.95580000
S      -47.20590000     -34.46750000     -67.94990000
S      -46.55350000     -33.55200000     -75.13800000
C      -45.86050000     -33.59670000     -68.79530000
H      -46.12560000     -32.56720000     -69.00420000
H      -45.05930000     -33.48540000     -68.03160000
C      -45.23510000     -33.91120000     -73.77660000
H      -44.25470000     -34.09540000     -74.24160000
H      -45.39030000     -34.89610000     -73.26040000
C      -45.09590000     -32.63070000     -72.79870000
H      -45.46360000     -31.74740000     -73.34120000
H      -45.86340000     -32.68370000     -71.98940000
C      -45.28050000     -34.32950000     -70.03090000
H      -45.71990000     -34.09010000     -70.99530000
H      -45.37940000     -35.40540000     -69.82430000
C      -43.77280000     -34.06840000     -70.11400000
C      -42.89630000     -34.61440000     -69.21890000
C      -43.12620000     -33.28150000     -71.09810000
H      -43.16930000     -35.25840000     -68.49770000
C      -41.76080000     -33.13740000     -70.96580000
C      -43.69850000     -32.52700000     -72.23090000
C      -42.78030000     -31.69470000     -72.81770000
S      -41.21900000     -34.02370000     -69.54500000
S      -41.17900000     -31.80080000     -71.96990000
H      -42.98950000     -30.91230000     -73.61610000
