40
Properties=species:S:1:pos:R:3 #=T CELL(abcABC):=T 1.889726e+02=T 90.00000=T Traj:=T positionsangstrom=T Step:=T 0=T Bead:=T pbc="F F F"
C      -44.47940000     -30.61500000     -74.70220000
C      -45.01600000     -31.91210000     -74.42040000
C      -44.20480000     -32.92620000     -73.85320000
C      -42.86720000     -32.65330000     -73.55620000
C      -42.37420000     -31.44710000     -73.95680000
C      -43.12650000     -30.41280000     -74.46460000
H      -45.14140000     -29.79490000     -74.92390000
H      -44.82380000     -33.82780000     -73.63770000
H      -41.28650000     -31.26210000     -73.75430000
H      -42.74280000     -29.41160000     -74.63870000
C      -41.91770000     -33.72380000     -73.12280000
H      -41.00620000     -33.74040000     -73.73970000
H      -42.41640000     -34.73360000     -73.09730000
C      -46.43600000     -32.03320000     -74.59820000
H      -46.76190000     -31.83100000     -75.60410000
H      -46.83650000     -32.96530000     -74.34120000
S      -41.31820000     -33.51540000     -71.35010000
S      -47.37620000     -30.87290000     -73.50100000
C      -42.55510000     -34.52790000     -70.42570000
H      -42.72060000     -35.44410000     -70.97830000
H      -42.09880000     -34.87750000     -69.50470000
C      -48.06720000     -32.09430000     -72.25120000
H      -48.35410000     -33.10270000     -72.71790000
H      -48.96850000     -31.60060000     -71.79710000
C      -46.90130000     -32.52780000     -71.22520000
H      -45.97370000     -32.82050000     -71.73050000
H      -46.66390000     -31.72410000     -70.55510000
C      -43.92740000     -33.79300000     -70.38310000
H      -44.26730000     -33.76060000     -71.39510000
H      -43.84290000     -32.80770000     -70.08800000
C      -44.90310000     -34.51080000     -69.43610000
C      -44.54840000     -35.40830000     -68.46730000
C      -46.35940000     -34.40800000     -69.46900000
H      -43.55670000     -35.72640000     -68.15910000
C      -46.99200000     -35.22450000     -68.55150000
C      -47.31460000     -33.63390000     -70.25970000
C      -48.62820000     -33.91760000     -69.92640000
S      -45.92380000     -36.18840000     -67.60960000
S      -48.72010000     -35.11890000     -68.56090000
H      -49.45970000     -33.21250000     -70.07430000
