40
Properties=species:S:1:pos:R:3 #=T CELL(abcABC):=T 1.889726e+02=T 90.00000=T Traj:=T positionsangstrom=T Step:=T 0=T Bead:=T pbc="F F F"
C      -44.57170000     -30.67260000     -74.77060000
C      -45.16560000     -31.89700000     -74.33240000
C      -44.38650000     -32.95990000     -73.97920000
C      -42.95280000     -32.87440000     -74.02570000
C      -42.34150000     -31.62430000     -74.46110000
C      -43.15160000     -30.59040000     -74.84730000
H      -45.08160000     -29.82170000     -75.04500000
H      -44.76490000     -33.90210000     -73.70680000
H      -41.29550000     -31.60990000     -74.51560000
H      -42.70260000     -29.76130000     -75.22480000
C      -42.07230000     -34.06090000     -73.52370000
H      -41.09600000     -34.16800000     -74.15070000
H      -42.56010000     -34.98860000     -73.53400000
C      -46.68350000     -32.07580000     -74.32070000
H      -47.07580000     -31.87140000     -75.30960000
H      -47.06510000     -33.13140000     -74.05490000
S      -41.40510000     -33.78150000     -71.79670000
S      -47.46880000     -30.78880000     -73.23830000
C      -42.66690000     -34.61600000     -70.67320000
H      -42.61850000     -35.70690000     -70.75630000
H      -42.31640000     -34.44470000     -69.64920000
C      -47.84700000     -31.78640000     -71.70020000
H      -48.36170000     -32.64570000     -72.15580000
H      -48.53340000     -31.22330000     -71.08970000
C      -46.64460000     -32.31820000     -70.89820000
H      -46.00660000     -32.80300000     -71.61350000
H      -46.17260000     -31.43090000     -70.48390000
C      -44.13510000     -34.24100000     -70.87490000
H      -44.35170000     -34.70690000     -71.79720000
H      -44.27740000     -33.21820000     -71.04570000
C      -44.96820000     -34.85760000     -69.69900000
C      -44.65300000     -35.92620000     -68.90850000
C      -46.22130000     -34.33420000     -69.33860000
H      -43.83140000     -36.60230000     -68.99830000
C      -46.87270000     -35.03910000     -68.33110000
C      -47.07510000     -33.29130000     -69.84610000
C      -48.27230000     -33.18780000     -69.19290000
S      -45.96280000     -36.41730000     -67.79210000
S      -48.46810000     -34.42970000     -67.89730000
H      -49.12370000     -32.50910000     -69.26560000
