40
Properties=species:S:1:pos:R:3 #=T CELL(abcABC):=T 1.889726e+02=T 90.00000=T Traj:=T positionsangstrom=T Step:=T 0=T Bead:=T pbc="F F F"
C      -44.55960000     -30.73520000     -74.84640000
C      -45.02240000     -31.96910000     -74.36310000
C      -44.09360000     -32.94340000     -73.90540000
C      -42.71510000     -32.72210000     -73.85740000
C      -42.28240000     -31.53030000     -74.44040000
C      -43.15500000     -30.50750000     -74.88330000
H      -45.25060000     -29.93150000     -75.25450000
H      -44.47640000     -33.83470000     -73.43830000
H      -41.22680000     -31.41960000     -74.52170000
H      -42.77220000     -29.44600000     -75.20780000
C      -41.88720000     -33.82880000     -73.25480000
H      -41.00170000     -34.04110000     -73.81760000
H      -42.47140000     -34.81380000     -73.37950000
C      -46.48890000     -32.22240000     -74.40390000
H      -46.79710000     -32.15550000     -75.44200000
H      -46.69820000     -33.25940000     -74.15190000
S      -41.34200000     -33.59680000     -71.46670000
S      -47.54610000     -30.91820000     -73.49020000
C      -42.60400000     -34.58160000     -70.54150000
H      -42.84540000     -35.50560000     -71.03910000
H      -42.12500000     -34.92490000     -69.65880000
C      -48.04780000     -31.76640000     -71.86810000
H      -48.87390000     -32.43410000     -72.19780000
H      -48.38720000     -30.92820000     -71.19330000
C      -46.83260000     -32.56380000     -71.28220000
H      -46.44240000     -33.34200000     -71.87360000
H      -46.01950000     -31.80500000     -71.15940000
C      -43.85170000     -33.78700000     -70.19550000
H      -44.41220000     -33.50350000     -71.11040000
H      -43.60960000     -32.82050000     -69.68590000
C      -44.84130000     -34.59790000     -69.34090000
C      -44.59660000     -35.73350000     -68.62140000
C      -46.29080000     -34.28790000     -69.33430000
H      -43.62630000     -36.21920000     -68.54730000
C      -46.97560000     -35.09190000     -68.41010000
C      -47.19080000     -33.40100000     -70.04630000
C      -48.52680000     -33.58940000     -69.62010000
S      -46.02370000     -36.31100000     -67.67070000
S      -48.68770000     -34.80770000     -68.30800000
H      -49.40110000     -33.16210000     -70.06030000
