40
Properties=species:S:1:pos:R:3 #=T CELL(abcABC):=T 1.889726e+02=T 90.00000=T Traj:=T positionsangstrom=T Step:=T 0=T Bead:=T pbc="F F F"
C      -44.40620000     -30.71130000     -74.89800000
C      -44.96620000     -31.95430000     -74.43310000
C      -44.15410000     -32.87630000     -73.76170000
C      -42.77810000     -32.66200000     -73.73920000
C      -42.26440000     -31.42050000     -74.11860000
C      -43.07990000     -30.42750000     -74.60660000
H      -45.16100000     -29.99340000     -75.29890000
H      -44.54940000     -33.83500000     -73.48560000
H      -41.25630000     -31.26960000     -73.93140000
H      -42.76670000     -29.38380000     -74.96830000
C      -41.90120000     -33.83550000     -73.18210000
H      -40.88990000     -33.83130000     -73.67520000
H      -42.35940000     -34.74610000     -73.36450000
C      -46.47340000     -32.10840000     -74.50440000
H      -46.76450000     -31.94720000     -75.55230000
H      -46.79180000     -33.15220000     -74.21790000
S      -41.40220000     -33.52510000     -71.47130000
S      -47.54090000     -31.01410000     -73.44660000
C      -42.57910000     -34.51480000     -70.48720000
H      -42.81140000     -35.46850000     -71.02470000
H      -42.01790000     -34.71330000     -69.52820000
C      -48.09110000     -32.02510000     -72.02120000
H      -48.79250000     -32.74670000     -72.37440000
H      -48.69430000     -31.45260000     -71.34900000
C      -46.84820000     -32.55950000     -71.21000000
H      -46.24330000     -33.07180000     -71.97040000
H      -46.23360000     -31.68920000     -70.84790000
C      -43.86850000     -33.70300000     -70.20640000
H      -44.29190000     -33.30970000     -71.19280000
H      -43.59950000     -32.77290000     -69.65320000
C      -44.89400000     -34.49790000     -69.39590000
C      -44.54900000     -35.52460000     -68.56480000
C      -46.34720000     -34.39220000     -69.42850000
H      -43.56840000     -35.76590000     -68.21610000
C      -46.99360000     -35.24690000     -68.59640000
C      -47.24930000     -33.49840000     -70.09140000
C      -48.55920000     -33.71470000     -69.66210000
S      -45.85780000     -36.27490000     -67.67270000
S      -48.79050000     -34.92780000     -68.49370000
H      -49.41960000     -33.17850000     -70.02110000
