40
Properties=species:S:1:pos:R:3 #=T CELL(abcABC):=T 1.889726e+02=T 90.00000=T Traj:=T positionsangstrom=T Step:=T 0=T Bead:=T pbc="F F F"
C      -43.70890000     -35.41660000     -74.34020000
C      -43.88160000     -34.03760000     -74.13610000
C      -45.14300000     -33.45150000     -74.22990000
C      -46.25780000     -34.26810000     -74.55170000
C      -46.08210000     -35.63340000     -74.79860000
C      -44.80040000     -36.14340000     -74.68570000
H      -42.62670000     -35.80970000     -74.13610000
H      -45.21080000     -32.40330000     -74.08410000
H      -46.85130000     -36.32530000     -75.15430000
H      -44.71560000     -37.19440000     -74.80900000
C      -47.59060000     -33.63990000     -74.76120000
H      -48.10540000     -34.22910000     -75.54760000
H      -47.61610000     -32.58460000     -75.02720000
C      -42.59130000     -33.22210000     -73.89500000
H      -42.00230000     -33.84120000     -73.23900000
H      -42.00630000     -33.08490000     -74.78930000
S      -48.78570000     -33.72320000     -73.22420000
S      -42.90770000     -31.52120000     -73.16600000
C      -47.64620000     -34.38930000     -71.88610000
H      -48.38010000     -34.68420000     -71.15050000
H      -47.15130000     -35.27740000     -72.27540000
C      -43.23480000     -32.08560000     -71.47090000
H      -42.34990000     -32.18280000     -70.84490000
H      -43.77810000     -33.05770000     -71.46450000
C      -44.03030000     -31.10620000     -70.59940000
H      -43.42490000     -30.24500000     -70.53130000
H      -45.02270000     -30.85870000     -71.10820000
C      -46.67780000     -33.33070000     -71.29170000
H      -47.26590000     -32.45360000     -71.07460000
H      -45.88120000     -33.10730000     -71.97670000
C      -46.17140000     -33.64620000     -69.91340000
C      -46.76820000     -34.63560000     -69.14390000
C      -45.33080000     -32.79750000     -69.10800000
H      -47.62840000     -35.30980000     -69.35480000
C      -45.32860000     -33.20530000     -67.78150000
C      -44.26660000     -31.81270000     -69.29150000
C      -43.59550000     -31.45250000     -68.15440000
S      -46.29180000     -34.58140000     -67.48350000
S      -44.23280000     -32.34670000     -66.67000000
H      -42.90750000     -30.73780000     -67.81430000
