40
Properties=species:S:1:pos:R:3 #=T CELL(abcABC):=T 1.889726e+02=T 90.00000=T Traj:=T positionsangstrom=T Step:=T 0=T Bead:=T pbc="F F F"
C      -44.54370000     -30.80060000     -74.92830000
C      -45.08680000     -31.93930000     -74.40200000
C      -44.24570000     -33.00520000     -73.85020000
C      -42.87870000     -32.81880000     -73.82570000
C      -42.35950000     -31.60390000     -74.26500000
C      -43.14600000     -30.69300000     -74.93220000
H      -45.22890000     -30.04950000     -75.36330000
H      -44.76000000     -33.95450000     -73.47060000
H      -41.25330000     -31.50000000     -74.33180000
H      -42.61700000     -29.77600000     -75.43170000
C      -41.85310000     -33.83140000     -73.29890000
H      -40.92750000     -33.74310000     -73.88750000
H      -42.37400000     -34.84880000     -73.30450000
C      -46.59790000     -32.11100000     -74.44570000
H      -47.04650000     -32.00590000     -75.45130000
H      -46.80630000     -33.04390000     -73.96520000
S      -41.45620000     -33.54040000     -71.51650000
S      -47.39940000     -30.84240000     -73.39770000
C      -42.65080000     -34.60790000     -70.68960000
H      -42.89460000     -35.50520000     -71.33180000
H      -42.16690000     -34.92220000     -69.75340000
C      -47.90090000     -31.77120000     -71.87040000
H      -48.62230000     -32.51350000     -72.06020000
H      -48.32360000     -31.07910000     -71.10610000
C      -46.74700000     -32.51540000     -71.11040000
H      -46.08950000     -32.95300000     -71.89670000
H      -46.10530000     -31.86750000     -70.55630000
C      -43.94900000     -33.89230000     -70.35230000
H      -44.33320000     -33.68220000     -71.32270000
H      -43.71700000     -32.97740000     -69.91090000
C      -44.90940000     -34.76230000     -69.60680000
C      -44.60940000     -35.76350000     -68.70430000
C      -46.32230000     -34.44300000     -69.49710000
H      -43.63440000     -36.22990000     -68.64420000
C      -46.99610000     -35.19560000     -68.47090000
C      -47.20150000     -33.48730000     -70.07090000
C      -48.44540000     -33.45850000     -69.44030000
S      -45.94130000     -36.33990000     -67.70400000
S      -48.63370000     -34.60210000     -68.12020000
H      -49.17720000     -32.70190000     -69.71360000
