40
Properties=species:S:1:pos:R:3 #=T CELL(abcABC):=T 1.889726e+02=T 90.00000=T Traj:=T positionsangstrom=T Step:=T 0=T Bead:=T pbc="F F F"
C      -44.35620000     -30.34020000     -74.34120000
C      -45.01950000     -31.60450000     -74.42120000
C      -44.25970000     -32.70730000     -74.09520000
C      -42.97280000     -32.62380000     -73.54480000
C      -42.37860000     -31.35930000     -73.42620000
C      -43.06270000     -30.24190000     -73.85200000
H      -44.75190000     -29.50090000     -74.77480000
H      -44.59740000     -33.77580000     -74.20810000
H      -41.32000000     -31.44950000     -73.00010000
H      -42.54950000     -29.24350000     -73.75930000
C      -42.14550000     -33.79820000     -73.12580000
H      -41.31340000     -33.80140000     -73.84280000
H      -42.79840000     -34.78120000     -73.28890000
C      -46.53040000     -31.72200000     -74.78590000
H      -46.71220000     -31.26700000     -75.71440000
H      -46.85620000     -32.79470000     -74.88060000
S      -41.26890000     -33.81020000     -71.45790000
S      -47.51690000     -30.90500000     -73.47200000
C      -42.50780000     -34.69800000     -70.43650000
H      -42.80780000     -35.65750000     -70.93910000
H      -42.05880000     -34.78290000     -69.45200000
C      -48.03830000     -32.25990000     -72.29870000
H      -48.66760000     -32.98330000     -72.94380000
H      -48.72010000     -31.76840000     -71.56130000
C      -46.83680000     -32.81540000     -71.61400000
H      -46.25200000     -33.50010000     -72.33540000
H      -46.18340000     -31.99300000     -71.28620000
C      -43.82230000     -33.88560000     -70.22050000
H      -44.11500000     -33.76430000     -71.25570000
H      -43.58420000     -32.90330000     -69.86770000
C      -44.87340000     -34.51340000     -69.33740000
C      -44.55240000     -35.35100000     -68.32620000
C      -46.32450000     -34.35240000     -69.54540000
H      -43.60910000     -35.67300000     -68.02780000
C      -46.97990000     -35.21120000     -68.68030000
C      -47.25770000     -33.80490000     -70.51140000
C      -48.56530000     -34.07270000     -70.13110000
S      -45.94690000     -36.03780000     -67.53120000
S      -48.67260000     -35.07880000     -68.67530000
H      -49.49970000     -33.53150000     -70.42520000
