40
Properties=species:S:1:pos:R:3 #=T CELL(abcABC):=T 1.889726e+02=T 90.00000=T Traj:=T positionsangstrom=T Step:=T 0=T Bead:=T pbc="F F F"
C      -44.34680000     -30.47220000     -74.35920000
C      -45.04310000     -31.69940000     -74.25640000
C      -44.26570000     -32.68860000     -73.76800000
C      -42.92660000     -32.59990000     -73.46470000
C      -42.25980000     -31.37920000     -73.57510000
C      -43.00710000     -30.30870000     -74.01300000
H      -44.96470000     -29.55970000     -74.55650000
H      -44.62270000     -33.63740000     -73.65250000
H      -41.27660000     -31.33240000     -73.18900000
H      -42.60380000     -29.33010000     -74.17940000
C      -42.10950000     -33.85800000     -73.09840000
H      -41.34350000     -34.08010000     -73.89900000
H      -42.69960000     -34.68840000     -73.01480000
C      -46.50960000     -31.81910000     -74.59960000
H      -46.73070000     -31.44150000     -75.65720000
H      -46.85070000     -32.88010000     -74.51650000
S      -41.21120000     -33.75420000     -71.47960000
S      -47.58380000     -30.85560000     -73.44970000
C      -42.53580000     -34.47740000     -70.30880000
H      -42.53780000     -35.61900000     -70.46300000
H      -41.92120000     -34.44630000     -69.32470000
C      -48.11090000     -32.16670000     -72.32140000
H      -48.71050000     -32.83040000     -72.92960000
H      -48.69850000     -31.72200000     -71.50260000
C      -46.88730000     -32.81010000     -71.59550000
H      -46.26770000     -33.32850000     -72.29040000
H      -46.27490000     -31.98400000     -71.23820000
C      -43.91470000     -33.81620000     -70.26570000
H      -44.31580000     -33.48970000     -71.23710000
H      -43.75790000     -32.78760000     -69.85190000
C      -44.88140000     -34.57250000     -69.45830000
C      -44.50260000     -35.47610000     -68.50090000
C      -46.33570000     -34.39700000     -69.59060000
H      -43.48580000     -35.56210000     -68.01050000
C      -46.99330000     -35.19100000     -68.65370000
C      -47.26010000     -33.80260000     -70.49800000
C      -48.58790000     -34.09630000     -70.20490000
S      -45.87650000     -35.99060000     -67.52350000
S      -48.73400000     -35.15250000     -68.78300000
H      -49.40200000     -33.75380000     -70.81300000
