40
Properties=species:S:1:pos:R:3 #=T CELL(abcABC):=T 1.889726e+02=T 90.00000=T Traj:=T positionsangstrom=T Step:=T 0=T Bead:=T pbc="F F F"
C      -49.88270000     -32.82710000     -71.37200000
C      -48.84190000     -33.43460000     -72.12400000
C      -48.17410000     -34.48390000     -71.62160000
C      -48.48680000     -34.98520000     -70.29680000
C      -49.64470000     -34.51050000     -69.56200000
C      -50.32100000     -33.37870000     -70.14140000
H      -50.40970000     -31.96780000     -71.81320000
H      -47.34550000     -34.93180000     -72.12050000
H      -50.09080000     -35.08000000     -68.74860000
H      -51.19350000     -32.99910000     -69.60900000
C      -47.48750000     -35.98430000     -69.69630000
H      -46.88170000     -36.38120000     -70.54810000
H      -47.94880000     -36.86130000     -69.23460000
C      -48.49460000     -32.94030000     -73.53650000
H      -47.88980000     -33.66710000     -74.20360000
H      -49.36810000     -32.65120000     -74.01790000
S      -46.36450000     -35.22030000     -68.43840000
S      -47.46040000     -31.38020000     -73.48980000
C      -45.13230000     -34.25520000     -69.44700000
H      -45.51580000     -33.23780000     -69.63310000
H      -44.24980000     -34.10850000     -68.86020000
C      -45.77930000     -32.16950000     -73.17500000
H      -45.23640000     -31.83680000     -74.04640000
H      -46.05210000     -33.20650000     -73.10490000
C      -45.22030000     -31.65910000     -71.82870000
H      -45.40060000     -30.56290000     -71.85770000
H      -45.74490000     -31.99130000     -70.91460000
C      -44.61530000     -34.96350000     -70.70040000
H      -45.27530000     -34.95420000     -71.59840000
H      -44.59370000     -36.04120000     -70.53170000
C      -43.22970000     -34.47410000     -71.05550000
C      -42.09460000     -35.23210000     -70.95890000
C      -42.95470000     -33.08910000     -71.63490000
H      -42.01800000     -36.25480000     -70.64390000
C      -41.63360000     -32.84980000     -71.76420000
C      -43.67340000     -31.80760000     -71.79410000
C      -42.84720000     -30.73990000     -71.96390000
S      -40.72600000     -34.42770000     -71.58360000
S      -41.10160000     -31.23200000     -71.94040000
H      -42.98330000     -29.69730000     -72.18490000
