40
Properties=species:S:1:pos:R:3 #=T CELL(abcABC):=T 1.889726e+02=T 90.00000=T Traj:=T positionsangstrom=T Step:=T 0=T Bead:=T pbc="F F F"
C      -44.47360000     -30.22750000     -73.58970000
C      -44.98520000     -31.48880000     -73.92530000
C      -44.25730000     -32.69490000     -73.89050000
C      -42.93470000     -32.59550000     -73.48280000
C      -42.46910000     -31.42550000     -72.84580000
C      -43.17840000     -30.23760000     -73.13310000
H      -44.98630000     -29.32060000     -73.71460000
H      -44.70450000     -33.59760000     -74.35280000
H      -41.50050000     -31.49640000     -72.36340000
H      -42.81450000     -29.27970000     -72.74550000
C      -42.06230000     -33.90130000     -73.45740000
H      -41.26050000     -33.94790000     -74.11120000
H      -42.63150000     -34.81450000     -73.67430000
C      -46.32350000     -31.57440000     -74.65580000
H      -46.32920000     -31.13960000     -75.66400000
H      -46.55930000     -32.71070000     -74.68800000
S      -41.29540000     -34.09360000     -71.71140000
S      -47.57520000     -30.81260000     -73.65600000
C      -42.59250000     -34.64260000     -70.55280000
H      -42.86750000     -35.68550000     -70.72130000
H      -42.06560000     -34.65580000     -69.57730000
C      -47.99050000     -32.26890000     -72.48150000
H      -48.32730000     -33.06010000     -73.13060000
H      -48.80650000     -32.07660000     -71.80310000
C      -46.81510000     -32.79080000     -71.67990000
H      -46.17860000     -33.44550000     -72.27850000
H      -46.19740000     -32.11270000     -71.23760000
C      -43.91150000     -33.83730000     -70.46140000
H      -44.33460000     -33.71300000     -71.45590000
H      -43.70120000     -32.82340000     -70.20230000
C      -44.89170000     -34.44090000     -69.48350000
C      -44.54430000     -35.22080000     -68.38810000
C      -46.31070000     -34.45020000     -69.72210000
H      -43.55250000     -35.26560000     -67.92720000
C      -46.93420000     -35.31020000     -68.82740000
C      -47.28440000     -33.73390000     -70.51890000
C      -48.56980000     -33.96350000     -70.09290000
S      -45.87970000     -35.96080000     -67.58030000
S      -48.63820000     -35.18420000     -68.79650000
H      -49.57410000     -33.68920000     -70.51100000
