40
Properties=species:S:1:pos:R:3 #=T CELL(abcABC):=T 1.889726e+02=T 90.00000=T Traj:=T positionsangstrom=T Step:=T 0=T Bead:=T pbc="F F F"
C      -49.79050000     -32.63050000     -71.14710000
C      -49.03140000     -33.39700000     -71.97880000
C      -48.41560000     -34.52320000     -71.49320000
C      -48.51660000     -34.89220000     -70.10440000
C      -49.25410000     -34.01400000     -69.28470000
C      -49.90100000     -32.88590000     -69.77710000
H      -50.24990000     -31.68470000     -71.44370000
H      -47.85280000     -35.02020000     -72.13760000
H      -49.20470000     -34.06870000     -68.19640000
H      -50.56120000     -32.33700000     -69.07820000
C      -47.77050000     -36.09260000     -69.52680000
H      -47.50200000     -36.73510000     -70.37260000
H      -48.33720000     -36.59580000     -68.80890000
C      -48.77140000     -32.88670000     -73.38140000
H      -48.15060000     -33.58140000     -73.87920000
H      -49.73300000     -32.50120000     -73.86790000
S      -46.19190000     -35.78210000     -68.73360000
S      -47.66350000     -31.36260000     -73.30480000
C      -45.21100000     -34.49080000     -69.65210000
H      -45.72730000     -33.56370000     -69.73060000
H      -44.34450000     -34.36040000     -69.00720000
C      -45.99410000     -32.17020000     -73.31150000
H      -45.44660000     -31.98280000     -74.26050000
H      -46.09870000     -33.24420000     -73.29340000
C      -45.17270000     -31.62570000     -72.00840000
H      -45.33330000     -30.52340000     -71.97260000
H      -45.63190000     -32.18890000     -71.15190000
C      -44.64040000     -34.93520000     -71.00340000
H      -45.36610000     -34.63440000     -71.83310000
H      -44.65380000     -36.00600000     -70.99400000
C      -43.27150000     -34.38230000     -71.30070000
C      -42.17360000     -35.18890000     -71.02080000
C      -42.94140000     -33.05900000     -71.69450000
H      -42.18690000     -36.22600000     -70.67380000
C      -41.54700000     -32.88300000     -71.84740000
C      -43.65620000     -31.81150000     -71.99950000
C      -42.76330000     -30.75380000     -72.27320000
S      -40.63630000     -34.32870000     -71.25420000
S      -41.01000000     -31.27030000     -72.13550000
H      -42.93030000     -29.64330000     -72.16130000
