40
Properties=species:S:1:pos:R:3 #=T CELL(abcABC):=T 1.889726e+02=T 90.00000=T Traj:=T positionsangstrom=T Step:=T 0=T Bead:=T pbc="F F F"
C      -43.65660000     -35.38350000     -74.40360000
C      -43.81820000     -33.95020000     -74.31120000
C      -45.12170000     -33.41780000     -74.47490000
C      -46.25230000     -34.35480000     -74.63720000
C      -46.01530000     -35.75370000     -74.66160000
C      -44.71140000     -36.23850000     -74.63400000
H      -42.61140000     -35.83090000     -74.26860000
H      -45.20810000     -32.33170000     -74.48650000
H      -46.83430000     -36.47190000     -74.71510000
H      -44.52770000     -37.30690000     -74.80610000
C      -47.56100000     -33.65700000     -74.75810000
H      -48.17290000     -34.08910000     -75.58530000
H      -47.36520000     -32.59860000     -74.94410000
C      -42.63240000     -32.98380000     -74.04230000
H      -41.85020000     -33.47420000     -73.40510000
H      -42.16570000     -32.67060000     -75.01390000
S      -48.59440000     -33.82080000     -73.27950000
S      -43.00750000     -31.46090000     -73.17170000
C      -47.68790000     -34.35460000     -71.73450000
H      -48.51190000     -34.45010000     -71.01530000
H      -47.34630000     -35.41420000     -71.81150000
C      -43.07420000     -31.78240000     -71.38270000
H      -42.12920000     -31.52160000     -70.96130000
H      -43.10080000     -32.90220000     -71.27310000
C      -44.24900000     -31.10600000     -70.69000000
H      -44.03900000     -30.05850000     -70.50820000
H      -45.13420000     -31.14670000     -71.24870000
C      -46.58240000     -33.40440000     -71.18910000
H      -46.81470000     -32.33630000     -71.48330000
H      -45.71030000     -33.65940000     -71.82810000
C      -46.35020000     -33.65140000     -69.75840000
C      -46.92680000     -34.65670000     -69.00260000
C      -45.41500000     -32.84190000     -69.00340000
H      -47.49560000     -35.48500000     -69.42460000
C      -45.25630000     -33.36890000     -67.74720000
C      -44.54410000     -31.65650000     -69.28670000
C      -43.89310000     -31.35030000     -68.15700000
S      -46.26140000     -34.62190000     -67.36380000
S      -44.13350000     -32.44070000     -66.77680000
H      -43.29400000     -30.48260000     -68.03690000
