40
Properties=species:S:1:pos:R:3 #=T CELL(abcABC):=T 1.889726e+02=T 90.00000=T Traj:=T positionsangstrom=T Step:=T 0=T Bead:=T pbc="F F F"
C      -48.48690000     -31.33060000     -71.00460000
C      -47.67910000     -32.43200000     -71.32880000
C      -46.75880000     -32.89590000     -70.33580000
C      -46.64510000     -32.09080000     -69.12150000
C      -47.43540000     -30.96680000     -68.86580000
C      -48.38490000     -30.61060000     -69.84210000
H      -49.16340000     -30.92780000     -71.75160000
H      -46.05580000     -33.68510000     -70.63140000
H      -47.39790000     -30.39510000     -67.94370000
H      -49.04490000     -29.71820000     -69.68440000
C      -45.65620000     -32.69570000     -68.21070000
H      -45.56700000     -33.77450000     -68.42220000
H      -46.00180000     -32.55770000     -67.21620000
C      -47.88210000     -33.23120000     -72.58010000
H      -47.57010000     -34.26360000     -72.42770000
H      -48.94550000     -33.34530000     -72.69250000
S      -43.99790000     -31.83120000     -68.30420000
S      -47.25100000     -32.55180000     -74.13590000
C      -43.88160000     -31.43030000     -70.10430000
H      -44.83770000     -31.47270000     -70.60790000
H      -43.61700000     -30.38500000     -70.26330000
C      -45.62080000     -31.78580000     -73.63310000
H      -45.58030000     -31.64330000     -72.49250000
H      -45.48890000     -30.89080000     -74.21730000
C      -44.35060000     -32.62670000     -73.90040000
H      -44.23300000     -32.69310000     -75.04790000
H      -43.49550000     -32.01340000     -73.58330000
C      -42.79430000     -32.38610000     -70.83070000
H      -41.79500000     -32.18880000     -70.41540000
H      -42.67300000     -31.92150000     -71.75150000
C      -43.15470000     -33.83900000     -70.84310000
C      -43.02160000     -34.75120000     -69.79900000
C      -43.89340000     -34.44850000     -71.98480000
H      -42.48950000     -34.54920000     -68.90010000
C      -44.15870000     -35.78340000     -71.78340000
C      -44.28150000     -34.05280000     -73.34670000
C      -44.89160000     -35.03300000     -74.07720000
S      -43.62670000     -36.33840000     -70.27480000
S      -44.95280000     -36.59490000     -73.15830000
H      -45.02390000     -34.92410000     -75.10860000
