40
Properties=species:S:1:pos:R:3 #=T CELL(abcABC):=T 1.889726e+02=T 90.00000=T Traj:=T positionsangstrom=T Step:=T 0=T Bead:=T pbc="F F F"
C      -48.64420000     -31.59400000     -70.65610000
C      -47.73710000     -32.54620000     -71.16200000
C      -46.55470000     -32.77980000     -70.47770000
C      -46.25040000     -32.17710000     -69.26570000
C      -47.10530000     -31.16170000     -68.77350000
C      -48.32280000     -30.88250000     -69.48740000
H      -49.53740000     -31.42460000     -71.24100000
H      -45.90890000     -33.61110000     -70.75760000
H      -46.82370000     -30.61080000     -67.87690000
H      -49.06840000     -30.27850000     -69.00800000
C      -45.13800000     -32.55290000     -68.42920000
H      -44.70830000     -33.53890000     -68.70400000
H      -45.40740000     -32.32870000     -67.36430000
C      -47.94320000     -33.34770000     -72.42580000
H      -47.40910000     -34.28890000     -72.41220000
H      -49.01580000     -33.55350000     -72.53120000
S      -43.64560000     -31.38760000     -68.86440000
S      -47.46670000     -32.34580000     -73.93400000
C      -43.51750000     -31.31140000     -70.71420000
H      -44.54450000     -31.38030000     -70.98080000
H      -43.12350000     -30.29610000     -70.90740000
C      -45.66830000     -31.88620000     -73.75280000
H      -45.47350000     -31.77260000     -72.65490000
H      -45.55320000     -30.98000000     -74.17940000
C      -44.68650000     -32.93140000     -74.11310000
H      -44.79460000     -33.32490000     -75.11060000
H      -43.72630000     -32.41300000     -74.02250000
C      -42.61000000     -32.41330000     -71.28290000
H      -41.72420000     -32.35610000     -70.66420000
H      -42.47140000     -32.22470000     -72.37980000
C      -43.07080000     -33.82080000     -71.12490000
C      -42.65060000     -34.67530000     -70.10010000
C      -44.08870000     -34.51590000     -72.01010000
H      -42.13500000     -34.44260000     -69.18070000
C      -44.39360000     -35.78020000     -71.51770000
C      -44.74220000     -34.21550000     -73.26970000
C      -45.42240000     -35.31870000     -73.75450000
S      -43.48420000     -36.24960000     -70.12630000
S      -45.44610000     -36.67190000     -72.62690000
H      -45.87560000     -35.45730000     -74.76600000
