40
Properties=species:S:1:pos:R:3 #=T CELL(abcABC):=T 1.889726e+02=T 90.00000=T Traj:=T positionsangstrom=T Step:=T 0=T Bead:=T pbc="F F F"
C      -48.42660000     -31.33770000     -71.00980000
C      -47.60190000     -32.47670000     -71.29350000
C      -46.63080000     -32.87600000     -70.39700000
C      -46.40090000     -32.08940000     -69.24270000
C      -47.23260000     -31.04720000     -68.91790000
C      -48.28000000     -30.69750000     -69.78450000
H      -49.21940000     -31.01460000     -71.68760000
H      -46.13310000     -33.84680000     -70.48140000
H      -47.10360000     -30.46820000     -68.01380000
H      -48.84010000     -29.78770000     -69.72830000
C      -45.31050000     -32.53550000     -68.28680000
H      -45.09980000     -33.62070000     -68.44510000
H      -45.52510000     -32.45650000     -67.19070000
C      -47.71810000     -33.40550000     -72.55430000
H      -47.04520000     -34.31230000     -72.52980000
H      -48.74480000     -33.82770000     -72.76200000
S      -43.80210000     -31.54100000     -68.49360000
S      -47.30010000     -32.43850000     -74.11200000
C      -43.60450000     -31.34700000     -70.38600000
H      -44.60780000     -31.51280000     -70.80610000
H      -43.27020000     -30.38520000     -70.75960000
C      -45.59550000     -31.83840000     -73.56930000
H      -45.61150000     -31.50610000     -72.47050000
H      -45.46140000     -30.95610000     -74.11440000
C      -44.44160000     -32.72800000     -73.94110000
H      -44.32260000     -32.75160000     -74.99470000
H      -43.54840000     -32.20320000     -73.59310000
C      -42.70060000     -32.53880000     -70.97420000
H      -41.73010000     -32.54530000     -70.40930000
H      -42.33680000     -32.35820000     -72.04770000
C      -43.32370000     -33.89350000     -70.97880000
C      -43.16590000     -34.68020000     -69.85230000
C      -43.96870000     -34.54710000     -72.04500000
H      -42.60980000     -34.39450000     -68.97830000
C      -44.28210000     -35.88370000     -71.68100000
C      -44.48290000     -34.13750000     -73.34150000
C      -45.20440000     -35.16830000     -73.86930000
S      -43.78610000     -36.30040000     -70.09090000
S      -45.23680000     -36.66950000     -72.95240000
H      -45.55320000     -35.09570000     -74.93140000
