40
Properties=species:S:1:pos:R:3 #=T CELL(abcABC):=T 1.889726e+02=T 90.00000=T Traj:=T positionsangstrom=T Step:=T 0=T Bead:=T pbc="F F F"
C      -48.43700000     -31.21820000     -71.08910000
C      -47.78600000     -32.49280000     -71.23610000
C      -46.77710000     -32.86750000     -70.35450000
C      -46.53790000     -32.11190000     -69.21360000
C      -47.20780000     -30.89190000     -68.99880000
C      -48.06500000     -30.45460000     -69.98710000
H      -49.07480000     -30.82520000     -71.88040000
H      -46.25090000     -33.79210000     -70.43140000
H      -47.06830000     -30.17450000     -68.23790000
H      -48.45290000     -29.44410000     -69.79220000
C      -45.48620000     -32.66610000     -68.21850000
H      -45.34820000     -33.76250000     -68.38460000
H      -45.84270000     -32.40960000     -67.18580000
C      -47.90040000     -33.40850000     -72.52990000
H      -47.21770000     -34.22130000     -72.31000000
H      -48.94870000     -33.75010000     -72.59290000
S      -43.88700000     -31.69180000     -68.37960000
S      -47.25760000     -32.47370000     -74.03900000
C      -43.75980000     -31.42720000     -70.14900000
H      -44.72000000     -31.40090000     -70.63090000
H      -43.35650000     -30.43420000     -70.22970000
C      -45.64840000     -31.92410000     -73.39290000
H      -45.62910000     -31.97600000     -72.32180000
H      -45.51470000     -30.77420000     -73.68410000
C      -44.40930000     -32.72570000     -74.03490000
H      -44.49450000     -32.72840000     -75.13950000
H      -43.40320000     -32.25420000     -73.88640000
C      -42.83980000     -32.40110000     -70.89680000
H      -41.89000000     -32.42870000     -70.42270000
H      -42.83200000     -32.07970000     -71.96400000
C      -43.36110000     -33.80230000     -70.92860000
C      -43.15640000     -34.68680000     -69.90520000
C      -43.99630000     -34.51770000     -72.03110000
H      -42.67120000     -34.43290000     -68.94120000
C      -44.25690000     -35.85130000     -71.73080000
C      -44.39770000     -34.10400000     -73.38470000
C      -44.84200000     -35.18130000     -74.09750000
S      -43.69430000     -36.31060000     -70.13370000
S      -45.05710000     -36.69280000     -73.10490000
H      -45.45040000     -35.06940000     -75.00050000
