40
Properties=species:S:1:pos:R:3 #=T CELL(abcABC):=T 1.889726e+02=T 90.00000=T Traj:=T positionsangstrom=T Step:=T 0=T Bead:=T pbc="F F F"
C      -48.32740000     -31.30630000     -71.11030000
C      -47.71270000     -32.61780000     -71.25040000
C      -46.74110000     -33.00780000     -70.27900000
C      -46.42920000     -32.16250000     -69.17750000
C      -47.11310000     -30.88790000     -69.01790000
C      -48.10390000     -30.56520000     -69.93920000
H      -49.07400000     -30.88770000     -71.76160000
H      -46.14170000     -33.89930000     -70.53440000
H      -47.08930000     -30.26760000     -68.16370000
H      -48.61980000     -29.64200000     -69.78810000
C      -45.38450000     -32.55300000     -68.20550000
H      -45.10700000     -33.59370000     -68.31280000
H      -45.72230000     -32.45020000     -67.18860000
C      -48.03850000     -33.27150000     -72.49960000
H      -47.78010000     -34.33310000     -72.47950000
H      -49.06530000     -33.20150000     -72.68030000
S      -43.83200000     -31.52910000     -68.38630000
S      -47.24100000     -32.47800000     -74.06980000
C      -43.64290000     -31.31360000     -70.20520000
H      -44.61830000     -30.90130000     -70.61270000
H      -42.98100000     -30.47470000     -70.32650000
C      -45.54410000     -31.83070000     -73.57450000
H      -45.51780000     -31.68060000     -72.50060000
H      -45.36480000     -30.90720000     -74.08370000
C      -44.46750000     -32.84530000     -74.09460000
H      -44.57480000     -32.91570000     -75.16910000
H      -43.47070000     -32.39600000     -73.79220000
C      -42.79810000     -32.42490000     -70.88260000
H      -41.84090000     -32.38800000     -70.42490000
H      -42.51990000     -31.97950000     -71.84990000
C      -43.37010000     -33.80310000     -70.95930000
C      -43.09530000     -34.67630000     -69.92660000
C      -44.14510000     -34.46210000     -71.98090000
H      -42.32430000     -34.56820000     -69.13750000
C      -44.29490000     -35.84710000     -71.71060000
C      -44.51730000     -34.18870000     -73.39670000
C      -45.14770000     -35.26050000     -73.98240000
S      -43.80090000     -36.29940000     -70.15590000
S      -45.04410000     -36.76090000     -73.01480000
H      -45.55700000     -35.23060000     -75.02890000
