40
Properties=species:S:1:pos:R:3 #=T CELL(abcABC):=T 1.889726e+02=T 90.00000=T Traj:=T positionsangstrom=T Step:=T 0=T Bead:=T pbc="F F F"
C      -48.45060000     -31.45120000     -70.76510000
C      -47.72660000     -32.55380000     -71.13030000
C      -46.64520000     -32.98220000     -70.36220000
C      -46.27030000     -32.22640000     -69.23320000
C      -47.11390000     -31.18740000     -68.76130000
C      -48.28020000     -30.79620000     -69.49200000
H      -49.17020000     -31.08030000     -71.46750000
H      -46.11800000     -33.85100000     -70.66630000
H      -46.72780000     -30.77220000     -67.86200000
H      -48.92190000     -30.02630000     -69.02030000
C      -44.97110000     -32.41490000     -68.44900000
H      -44.71390000     -33.47760000     -68.42410000
H      -45.13230000     -32.20920000     -67.40990000
C      -48.10510000     -33.35800000     -72.40880000
H      -47.52750000     -34.31170000     -72.43100000
H      -49.20150000     -33.63110000     -72.44390000
S      -43.50380000     -31.32780000     -68.94770000
S      -47.70980000     -32.40230000     -73.92160000
C      -43.52370000     -31.36710000     -70.75220000
H      -44.49800000     -31.52320000     -71.15320000
H      -43.17970000     -30.33700000     -71.18150000
C      -45.96690000     -31.95160000     -73.57850000
H      -45.90310000     -31.86860000     -72.48030000
H      -45.81430000     -30.91010000     -73.93130000
C      -44.81090000     -32.91940000     -74.05170000
H      -44.95070000     -33.25340000     -75.08270000
H      -43.81980000     -32.43960000     -73.87680000
C      -42.59200000     -32.39120000     -71.39060000
H      -41.61320000     -32.25020000     -70.93890000
H      -42.38340000     -32.17190000     -72.44360000
C      -42.99790000     -33.82170000     -71.24210000
C      -42.67460000     -34.60530000     -70.12350000
C      -43.92690000     -34.51430000     -72.10960000
H      -42.04150000     -34.28690000     -69.31400000
C      -44.15270000     -35.82640000     -71.67020000
C      -44.74730000     -34.24810000     -73.27000000
C      -45.56760000     -35.31930000     -73.66960000
S      -43.43160000     -36.19170000     -70.08940000
S      -45.38400000     -36.73890000     -72.54110000
H      -46.28410000     -35.41040000     -74.56760000
