40
Properties=species:S:1:pos:R:3 #=T CELL(abcABC):=T 1.889726e+02=T 90.00000=T Traj:=T positionsangstrom=T Step:=T 0=T Bead:=T pbc="F F F"
C      -47.44850000     -32.17010000     -74.83890000
C      -47.53390000     -32.48780000     -73.49200000
C      -47.34950000     -33.84550000     -73.06110000
C      -46.90420000     -34.79600000     -73.97570000
C      -46.54890000     -34.35680000     -75.29320000
C      -46.79210000     -33.08070000     -75.75840000
H      -47.76270000     -31.16430000     -75.18760000
H      -47.74380000     -34.22340000     -72.11950000
H      -46.14530000     -35.19790000     -75.92070000
H      -46.63950000     -32.69110000     -76.77410000
C      -46.67080000     -36.20700000     -73.56450000
H      -47.21270000     -36.79510000     -74.34440000
H      -47.09260000     -36.47330000     -72.58410000
C      -48.13380000     -31.40950000     -72.54730000
H      -48.36830000     -30.46370000     -73.08430000
H      -49.02660000     -31.93900000     -72.15130000
S      -44.92820000     -36.72920000     -73.57610000
S      -47.13540000     -31.12150000     -70.99180000
C      -44.43500000     -36.23930000     -71.85490000
H      -45.10350000     -36.70360000     -71.15380000
H      -43.44850000     -36.69320000     -71.78500000
C      -45.54530000     -30.31730000     -71.65080000
H      -45.43870000     -29.44020000     -71.09590000
H      -45.79860000     -30.04980000     -72.75760000
C      -44.34760000     -31.24760000     -71.57180000
H      -44.47720000     -32.04220000     -72.27950000
H      -43.48150000     -30.69610000     -71.93650000
C      -44.34150000     -34.73190000     -71.65740000
H      -45.32420000     -34.31540000     -71.94920000
H      -43.61120000     -34.40440000     -72.44060000
C      -43.95010000     -34.38100000     -70.23420000
C      -43.82310000     -35.35450000     -69.29900000
C      -43.89390000     -33.04700000     -69.66210000
H      -43.57670000     -36.37810000     -69.47980000
C      -43.80850000     -33.11050000     -68.28410000
C      -43.95200000     -31.66000000     -70.18380000
C      -43.88320000     -30.82030000     -69.07980000
S      -43.72480000     -34.75290000     -67.65310000
S      -43.72970000     -31.57000000     -67.53080000
H      -44.01580000     -29.77230000     -69.06090000
