40
Properties=species:S:1:pos:R:3 #=T CELL(abcABC):=T 1.889726e+02=T 90.00000=T Traj:=T positionsangstrom=T Step:=T 0=T Bead:=T pbc="F F F"
C      -48.38020000     -31.08980000     -70.57500000
C      -47.96500000     -32.39430000     -70.83610000
C      -46.80910000     -32.83890000     -70.11110000
C      -46.11670000     -32.05250000     -69.17260000
C      -46.62810000     -30.74150000     -68.97700000
C      -47.75120000     -30.27900000     -69.65100000
H      -49.24470000     -30.66010000     -71.03460000
H      -46.53320000     -33.87320000     -70.32340000
H      -46.15910000     -30.01200000     -68.33370000
H      -48.08820000     -29.22920000     -69.47150000
C      -44.85660000     -32.59100000     -68.57280000
H      -44.61240000     -33.64850000     -68.83780000
H      -44.94090000     -32.53700000     -67.51790000
C      -48.63580000     -33.17920000     -71.90470000
H      -48.54990000     -34.26000000     -71.74780000
H      -49.75470000     -33.15670000     -71.91010000
S      -43.38250000     -31.57010000     -68.98670000
S      -48.11730000     -32.82140000     -73.58230000
C      -43.70120000     -31.19280000     -70.78080000
H      -44.73890000     -31.13130000     -70.99040000
H      -43.24610000     -30.18820000     -71.07290000
C      -46.35380000     -32.12700000     -73.47060000
H      -46.09020000     -31.81890000     -72.44150000
H      -46.46450000     -31.23570000     -74.05200000
C      -45.27940000     -33.13330000     -74.04960000
H      -45.57150000     -33.38920000     -75.05390000
H      -44.34260000     -32.51790000     -74.24410000
C      -42.96350000     -32.25850000     -71.64160000
H      -41.92970000     -31.99000000     -71.62560000
H      -43.23540000     -32.08310000     -72.68730000
C      -43.22860000     -33.65550000     -71.33870000
C      -42.49040000     -34.37280000     -70.44790000
C      -44.15420000     -34.47030000     -72.07820000
H      -41.59010000     -34.01760000     -69.92640000
C      -44.05840000     -35.84270000     -71.65180000
C      -45.10820000     -34.32290000     -73.16470000
C      -45.53450000     -35.55610000     -73.64320000
S      -42.77930000     -36.15390000     -70.45340000
S      -45.08390000     -36.88350000     -72.59480000
H      -46.33030000     -35.50170000     -74.36360000
