40
Properties=species:S:1:pos:R:3 #=T CELL(abcABC):=T 1.889726e+02=T 90.00000=T Traj:=T positionsangstrom=T Step:=T 0=T Bead:=T pbc="F F F"
C      -48.49660000     -31.17500000     -70.52800000
C      -47.98620000     -32.44990000     -70.83210000
C      -46.76780000     -32.82330000     -70.25860000
C      -46.18310000     -32.14280000     -69.22630000
C      -46.71250000     -30.85060000     -68.96390000
C      -47.84970000     -30.40390000     -69.59600000
H      -49.29180000     -30.81150000     -71.11620000
H      -46.29110000     -33.81950000     -70.47490000
H      -46.21040000     -30.21790000     -68.17420000
H      -48.23030000     -29.43440000     -69.37520000
C      -44.92440000     -32.69390000     -68.55670000
H      -44.77690000     -33.72180000     -68.77070000
H      -45.16260000     -32.75960000     -67.45760000
C      -48.50100000     -33.36720000     -71.88300000
H      -48.17210000     -34.35110000     -71.74230000
H      -49.58490000     -33.25150000     -71.84970000
S      -43.40940000     -31.53390000     -68.91710000
S      -48.01040000     -32.79700000     -73.67990000
C      -43.59140000     -31.24370000     -70.74320000
H      -44.65060000     -31.33200000     -70.83310000
H      -43.31740000     -30.26170000     -70.93490000
C      -46.36730000     -32.08840000     -73.46820000
H      -46.05900000     -31.90530000     -72.36650000
H      -46.35730000     -31.19110000     -74.02900000
C      -45.20890000     -33.00670000     -73.96940000
H      -45.37360000     -33.32730000     -75.01420000
H      -44.30600000     -32.52390000     -73.79860000
C      -42.68980000     -32.17190000     -71.68700000
H      -41.62640000     -31.96790000     -71.47860000
H      -42.84440000     -31.85910000     -72.78160000
C      -43.05580000     -33.67670000     -71.54900000
C      -42.44430000     -34.39280000     -70.59250000
C      -44.03110000     -34.54660000     -72.18240000
H      -41.74740000     -34.05350000     -69.78730000
C      -43.99840000     -35.83480000     -71.74890000
C      -44.98610000     -34.31940000     -73.23770000
C      -45.73930000     -35.43810000     -73.46770000
S      -43.00390000     -36.07340000     -70.36940000
S      -45.14850000     -36.79590000     -72.53880000
H      -46.50150000     -35.45240000     -74.17410000
