40
Properties=species:S:1:pos:R:3 #=T CELL(abcABC):=T 1.889726e+02=T 90.00000=T Traj:=T positionsangstrom=T Step:=T 0=T Bead:=T pbc="F F F"
C      -48.89530000     -32.21600000     -70.82320000
C      -47.81180000     -33.07440000     -71.06030000
C      -46.64060000     -32.84350000     -70.41560000
C      -46.55150000     -31.92930000     -69.40340000
C      -47.64850000     -31.08540000     -69.06000000
C      -48.82150000     -31.16070000     -69.86240000
H      -49.76370000     -32.41230000     -71.47640000
H      -45.78770000     -33.44670000     -70.56820000
H      -47.59070000     -30.31730000     -68.27900000
H      -49.64480000     -30.42080000     -69.56300000
C      -45.17450000     -31.76980000     -68.71040000
H      -44.61580000     -32.73010000     -68.82070000
H      -45.20160000     -31.55650000     -67.64420000
C      -47.86630000     -34.36140000     -71.96460000
H      -47.09840000     -35.13010000     -71.61810000
H      -48.89120000     -34.88220000     -71.75160000
S      -44.21080000     -30.44110000     -69.55470000
S      -47.67910000     -34.08050000     -73.74960000
C      -44.10980000     -30.78030000     -71.44590000
H      -45.15120000     -30.95800000     -71.82990000
H      -43.86260000     -29.83680000     -71.91110000
C      -46.27590000     -33.01240000     -73.92270000
H      -46.27340000     -32.29830000     -73.06350000
H      -46.45560000     -32.35620000     -74.73300000
C      -44.90420000     -33.70530000     -74.26770000
H      -45.05030000     -34.32490000     -75.13520000
H      -44.13460000     -32.87350000     -74.48490000
C      -43.14380000     -31.80680000     -72.00330000
H      -42.16080000     -31.42320000     -71.84770000
H      -43.21930000     -31.76900000     -73.11130000
C      -43.18960000     -33.15090000     -71.46600000
C      -42.45900000     -33.47050000     -70.30340000
C      -43.89000000     -34.25530000     -71.94580000
H      -42.03300000     -32.69530000     -69.71040000
C      -43.78320000     -35.32590000     -71.05990000
C      -44.52220000     -34.60930000     -73.13790000
C      -44.79820000     -35.95300000     -73.21670000
S      -42.74470000     -35.08330000     -69.72750000
S      -44.52940000     -36.77500000     -71.70870000
H      -45.20270000     -36.45300000     -74.12450000
