40
Properties=species:S:1:pos:R:3 #=T CELL(abcABC):=T 1.889726e+02=T 90.00000=T Traj:=T positionsangstrom=T Step:=T 0=T Bead:=T pbc="F F F"
C      -48.92940000     -32.44090000     -70.50800000
C      -47.83210000     -33.17710000     -70.90190000
C      -46.58100000     -33.05540000     -70.28550000
C      -46.37030000     -32.06790000     -69.28940000
C      -47.51120000     -31.35530000     -68.83840000
C      -48.73840000     -31.54570000     -69.45030000
H      -49.89990000     -32.51800000     -70.84190000
H      -45.76610000     -33.61360000     -70.75810000
H      -47.49580000     -30.67090000     -67.93080000
H      -49.58000000     -31.08990000     -69.10110000
C      -45.02250000     -31.95340000     -68.61450000
H      -44.38020000     -32.88990000     -68.57990000
H      -45.09940000     -31.48490000     -67.58200000
C      -47.93880000     -34.17920000     -72.04970000
H      -47.17330000     -34.93610000     -71.84660000
H      -48.92210000     -34.68660000     -71.97330000
S      -43.91870000     -30.56130000     -69.32380000
S      -47.79100000     -33.21220000     -73.71840000
C      -43.81470000     -30.92960000     -71.12080000
H      -44.85430000     -31.17170000     -71.41250000
H      -43.56010000     -29.95430000     -71.58520000
C      -46.25320000     -32.24860000     -73.56780000
H      -46.23150000     -31.77990000     -72.50340000
H      -46.32170000     -31.42480000     -74.30650000
C      -44.97810000     -32.96390000     -74.06070000
H      -45.01160000     -33.21530000     -75.08910000
H      -44.15960000     -32.21700000     -73.90950000
C      -42.72880000     -31.97820000     -71.59670000
H      -41.75630000     -31.74800000     -71.16840000
H      -42.66500000     -31.90630000     -72.66520000
C      -43.06210000     -33.43200000     -71.24330000
C      -42.28140000     -34.11660000     -70.34480000
C      -43.96320000     -34.31820000     -71.98860000
H      -41.56610000     -33.64500000     -69.75440000
C      -43.96770000     -35.60630000     -71.45360000
C      -44.68080000     -34.19150000     -73.19340000
C      -45.24180000     -35.39980000     -73.62280000
S      -42.86980000     -35.78070000     -70.10660000
S      -44.86450000     -36.69760000     -72.44880000
H      -45.82510000     -35.65390000     -74.50480000
