40
Properties=species:S:1:pos:R:3 #=T CELL(abcABC):=T 1.889726e+02=T 90.00000=T Traj:=T positionsangstrom=T Step:=T 0=T Bead:=T pbc="F F F"
C      -48.68640000     -32.01010000     -70.82760000
C      -47.76630000     -33.11770000     -70.91110000
C      -46.65470000     -33.07440000     -70.14000000
C      -46.38040000     -31.99170000     -69.27520000
C      -47.28580000     -30.94710000     -69.11410000
C      -48.41140000     -30.99360000     -69.96810000
H      -49.50610000     -31.89490000     -71.54600000
H      -45.83770000     -33.74820000     -70.20900000
H      -47.03670000     -29.98570000     -68.55450000
H      -49.00100000     -30.02050000     -70.03760000
C      -45.11810000     -31.94630000     -68.54650000
H      -44.55000000     -32.87810000     -68.58060000
H      -45.41900000     -31.81690000     -67.50600000
C      -47.90060000     -34.24220000     -71.87960000
H      -47.19580000     -34.99210000     -71.80930000
H      -48.93490000     -34.63010000     -71.82440000
S      -44.05250000     -30.48540000     -69.24950000
S      -47.77180000     -33.71640000     -73.64310000
C      -44.20120000     -30.78100000     -71.10040000
H      -45.20670000     -31.03000000     -71.34740000
H      -43.96330000     -29.89450000     -71.57660000
C      -46.30120000     -32.62990000     -73.68330000
H      -46.30360000     -32.29800000     -72.63570000
H      -46.42410000     -31.82030000     -74.34620000
C      -45.01940000     -33.29730000     -74.19850000
H      -45.15310000     -33.59510000     -75.20240000
H      -44.22120000     -32.50010000     -74.22810000
C      -43.17860000     -31.81630000     -71.72180000
H      -42.18470000     -31.47460000     -71.41330000
H      -43.35540000     -31.86330000     -72.80010000
C      -43.22830000     -33.26820000     -71.32970000
C      -42.67490000     -33.71250000     -70.14520000
C      -43.81270000     -34.34680000     -72.09180000
H      -42.24380000     -33.16290000     -69.33450000
C      -43.80530000     -35.62250000     -71.43690000
C      -44.64820000     -34.49400000     -73.32050000
C      -45.07480000     -35.75780000     -73.56520000
S      -42.86210000     -35.49230000     -69.92740000
S      -44.60060000     -36.92700000     -72.30010000
H      -45.71730000     -36.09690000     -74.34210000
