40
Properties=species:S:1:pos:R:3 #=T CELL(abcABC):=T 1.889726e+02=T 90.00000=T Traj:=T positionsangstrom=T Step:=T 0=T Bead:=T pbc="F F F"
C      -48.71630000     -31.93740000     -70.74870000
C      -47.79210000     -32.98230000     -70.96750000
C      -46.62010000     -32.99100000     -70.17880000
C      -46.42420000     -32.03090000     -69.15740000
C      -47.40980000     -30.95170000     -68.95720000
C      -48.54100000     -30.94960000     -69.74630000
H      -49.62360000     -31.88330000     -71.35330000
H      -45.86390000     -33.81280000     -70.23260000
H      -47.33420000     -30.31910000     -68.08060000
H      -49.29380000     -30.08770000     -69.60970000
C      -45.09800000     -31.85560000     -68.47620000
H      -44.49260000     -32.77810000     -68.46350000
H      -45.18180000     -31.53510000     -67.43720000
C      -48.03390000     -34.14580000     -71.94530000
H      -47.38490000     -35.02250000     -71.65530000
H      -48.98190000     -34.66730000     -71.68530000
S      -43.96090000     -30.62840000     -69.34400000
S      -47.79900000     -33.70590000     -73.70760000
C      -44.18310000     -30.96920000     -71.11960000
H      -45.18760000     -31.50210000     -71.18230000
H      -44.17340000     -29.92090000     -71.61050000
C      -46.33730000     -32.58120000     -73.78880000
H      -46.26900000     -32.11360000     -72.76780000
H      -46.61450000     -31.75940000     -74.45130000
C      -45.05260000     -33.24550000     -74.20470000
H      -45.19440000     -33.59420000     -75.27580000
H      -44.24740000     -32.55270000     -74.22590000
C      -43.02870000     -31.84920000     -71.65630000
H      -42.11050000     -31.45120000     -71.28740000
H      -42.96760000     -31.77360000     -72.77520000
C      -43.15140000     -33.33120000     -71.28710000
C      -42.52060000     -33.83250000     -70.19060000
C      -43.87620000     -34.32610000     -72.03570000
H      -42.00220000     -33.42820000     -69.29790000
C      -43.83870000     -35.60240000     -71.41260000
C      -44.71720000     -34.41700000     -73.23990000
C      -45.03410000     -35.64940000     -73.54180000
S      -42.85070000     -35.57350000     -69.95490000
S      -44.58680000     -36.84880000     -72.38350000
H      -45.47430000     -35.96970000     -74.47570000
