40
Properties=species:S:1:pos:R:3 #=T CELL(abcABC):=T 1.889726e+02=T 90.00000=T Traj:=T positionsangstrom=T Step:=T 0=T Bead:=T pbc="F F F"
C      -48.69800000     -32.21860000     -70.90740000
C      -47.78420000     -33.25520000     -70.89480000
C      -46.61180000     -33.15970000     -70.09720000
C      -46.41700000     -31.97850000     -69.35670000
C      -47.40740000     -30.97270000     -69.31310000
C      -48.59150000     -31.08910000     -70.10050000
H      -49.61620000     -32.28060000     -71.49140000
H      -45.84370000     -33.92680000     -70.03660000
H      -47.14570000     -30.11160000     -68.62690000
H      -49.39280000     -30.36180000     -69.94170000
C      -45.11400000     -31.82740000     -68.59270000
H      -44.59710000     -32.77310000     -68.55620000
H      -45.41880000     -31.46200000     -67.57290000
C      -47.94900000     -34.35990000     -71.98110000
H      -47.18370000     -35.16820000     -71.96390000
H      -48.96010000     -34.78840000     -71.90940000
S      -43.95970000     -30.54150000     -69.25120000
S      -47.86580000     -33.60990000     -73.68380000
C      -44.13970000     -30.80150000     -71.08160000
H      -45.17100000     -31.17400000     -71.29320000
H      -44.19810000     -29.77870000     -71.51450000
C      -46.33170000     -32.61890000     -73.78030000
H      -46.14740000     -32.17980000     -72.79540000
H      -46.45890000     -31.76200000     -74.52530000
C      -45.13360000     -33.43120000     -74.23120000
H      -45.47700000     -33.94360000     -75.10630000
H      -44.33620000     -32.68630000     -74.47120000
C      -43.11730000     -31.76550000     -71.72710000
H      -42.07070000     -31.33100000     -71.64220000
H      -43.39730000     -31.71320000     -72.78160000
C      -43.20140000     -33.18290000     -71.27780000
C      -42.66590000     -33.67680000     -70.11290000
C      -43.92960000     -34.25360000     -71.98650000
H      -42.07860000     -33.09290000     -69.41090000
C      -43.87000000     -35.48510000     -71.30520000
C      -44.61140000     -34.51150000     -73.30250000
C      -44.91900000     -35.86500000     -73.51930000
S      -42.90340000     -35.41050000     -69.88380000
S      -44.40420000     -36.87250000     -72.16570000
H      -45.55240000     -36.29490000     -74.24670000
