40
Properties=species:S:1:pos:R:3 #=T CELL(abcABC):=T 1.889726e+02=T 90.00000=T Traj:=T positionsangstrom=T Step:=T 0=T Bead:=T pbc="F F F"
C      -48.94080000     -33.48770000     -72.96100000
C      -48.27840000     -32.30970000     -72.59690000
C      -47.14700000     -31.97680000     -73.30970000
C      -46.67740000     -32.67490000     -74.45240000
C      -47.46500000     -33.73520000     -74.87370000
C      -48.53890000     -34.15010000     -74.12930000
H      -49.72310000     -33.84210000     -72.30040000
H      -46.46500000     -31.09810000     -73.08270000
H      -47.07880000     -34.41150000     -75.60840000
H      -49.09050000     -35.10450000     -74.41870000
C      -45.36080000     -32.26430000     -75.24260000
H      -44.93100000     -31.22900000     -75.02070000
H      -45.54410000     -32.32920000     -76.40650000
C      -48.68970000     -31.57660000     -71.30530000
H      -48.48760000     -30.48420000     -71.27410000
H      -49.74060000     -31.80250000     -71.06980000
S      -44.00120000     -33.39060000     -75.02340000
S      -47.73230000     -32.03400000     -69.78660000
C      -43.69740000     -33.24030000     -73.19450000
H      -42.64540000     -33.39970000     -72.96120000
H      -44.05300000     -32.22780000     -72.84710000
C      -46.23230000     -30.90030000     -69.87770000
H      -45.92800000     -30.49790000     -68.91920000
H      -46.53200000     -30.21070000     -70.68750000
C      -44.97090000     -31.66000000     -70.34860000
H      -45.15100000     -32.16880000     -71.38730000
H      -44.16850000     -30.96210000     -70.57840000
C      -44.54480000     -34.26840000     -72.33810000
H      -44.67690000     -35.17350000     -72.95680000
H      -45.55740000     -33.83390000     -72.14990000
C      -43.80150000     -34.59980000     -71.06420000
C      -43.23520000     -35.85600000     -70.87390000
C      -43.89020000     -33.99380000     -69.76120000
H      -43.07700000     -36.59570000     -71.68750000
C      -43.46580000     -34.74300000     -68.70240000
C      -44.38660000     -32.69880000     -69.33760000
C      -44.08650000     -32.45670000     -67.99550000
S      -42.82800000     -36.29110000     -69.24860000
S      -43.35280000     -33.84990000     -67.22660000
H      -44.21570000     -31.60190000     -67.39290000
