40
Properties=species:S:1:pos:R:3 #=T CELL(abcABC):=T 1.889726e+02=T 90.00000=T Traj:=T positionsangstrom=T Step:=T 0=T Bead:=T pbc="F F F"
C      -49.00420000     -32.50160000     -70.94310000
C      -47.92300000     -33.36330000     -71.08690000
C      -46.73050000     -33.11760000     -70.41220000
C      -46.51510000     -31.91830000     -69.74700000
C      -47.62830000     -31.05780000     -69.58710000
C      -48.87760000     -31.37870000     -70.11590000
H      -49.99690000     -32.67430000     -71.37790000
H      -45.91000000     -33.86160000     -70.53510000
H      -47.46090000     -30.11600000     -69.10270000
H      -49.68100000     -30.68260000     -70.07120000
C      -45.15900000     -31.64800000     -69.04640000
H      -44.56250000     -32.60440000     -69.04080000
H      -45.50090000     -31.55270000     -67.97760000
C      -47.93030000     -34.59830000     -72.02170000
H      -47.00730000     -35.24250000     -71.97700000
H      -48.87340000     -35.09010000     -71.91650000
S      -44.20700000     -30.28050000     -69.75450000
S      -47.97360000     -34.02000000     -73.75950000
C      -44.10940000     -30.71180000     -71.51300000
H      -45.06270000     -31.05670000     -71.97560000
H      -43.88620000     -29.76990000     -72.04370000
C      -46.34210000     -32.93790000     -73.84010000
H      -46.24070000     -32.32650000     -72.94860000
H      -46.52400000     -32.30790000     -74.74080000
C      -45.04960000     -33.69530000     -74.10070000
H      -45.18230000     -34.38210000     -74.99150000
H      -44.28410000     -32.98090000     -74.35040000
C      -42.96890000     -31.72280000     -71.84100000
H      -42.05300000     -31.23850000     -71.39420000
H      -42.85530000     -31.79780000     -72.91520000
C      -43.06080000     -33.12360000     -71.25120000
C      -42.40020000     -33.41550000     -70.09960000
C      -43.76720000     -34.25170000     -71.80150000
H      -41.67520000     -32.70570000     -69.53320000
C      -43.59400000     -35.35670000     -70.94640000
C      -44.60980000     -34.58000000     -72.94940000
C      -44.96860000     -35.83290000     -72.97410000
S      -42.57120000     -35.04330000     -69.53750000
S      -44.34640000     -36.74910000     -71.58210000
H      -45.65860000     -36.26050000     -73.70820000
