40
Properties=species:S:1:pos:R:3 #=T CELL(abcABC):=T 1.889726e+02=T 90.00000=T Traj:=T positionsangstrom=T Step:=T 0=T Bead:=T pbc="F F F"
C      -49.03690000     -32.21280000     -71.75410000
C      -48.09350000     -33.19870000     -71.50760000
C      -47.07060000     -32.98390000     -70.56950000
C      -47.03890000     -31.78050000     -69.86930000
C      -48.01440000     -30.76540000     -70.12900000
C      -49.05080000     -31.01870000     -71.04230000
H      -49.88700000     -32.36610000     -72.50190000
H      -46.26150000     -33.75460000     -70.34380000
H      -47.98390000     -29.76960000     -69.79420000
H      -49.91710000     -30.33770000     -71.16650000
C      -45.99050000     -31.39320000     -68.90750000
H      -45.46790000     -32.29380000     -68.41640000
H      -46.42170000     -30.75730000     -68.13360000
C      -48.20160000     -34.48520000     -72.34970000
H      -47.55690000     -35.29800000     -71.91100000
H      -49.26530000     -34.82830000     -72.43970000
S      -44.53420000     -30.38400000     -69.63990000
S      -47.52780000     -34.36590000     -74.12420000
C      -44.27220000     -30.97000000     -71.39450000
H      -45.15130000     -31.59020000     -71.70010000
H      -44.29550000     -30.13290000     -72.04910000
C      -46.08680000     -33.24980000     -74.00680000
H      -46.28970000     -32.54820000     -73.13420000
H      -46.01490000     -32.61570000     -74.89650000
C      -44.67470000     -33.84000000     -73.83040000
H      -44.37270000     -34.38540000     -74.73700000
H      -44.00430000     -33.08530000     -73.79910000
C      -42.98350000     -31.67450000     -71.71120000
H      -42.14380000     -31.08040000     -71.43870000
H      -42.93020000     -31.80950000     -72.84010000
C      -42.97650000     -33.02660000     -71.05120000
C      -42.11510000     -33.30320000     -70.00130000
C      -43.63590000     -34.26450000     -71.45930000
H      -41.48930000     -32.50580000     -69.50990000
C      -43.44130000     -35.27950000     -70.61270000
C      -44.43360000     -34.69720000     -72.60430000
C      -44.78620000     -36.02920000     -72.57650000
S      -42.28960000     -34.96700000     -69.30290000
S      -44.20110000     -36.79460000     -71.10430000
H      -45.24930000     -36.55740000     -73.38490000
