40
Properties=species:S:1:pos:R:3 #=T CELL(abcABC):=T 1.889726e+02=T 90.00000=T Traj:=T positionsangstrom=T Step:=T 0=T Bead:=T pbc="F F F"
C      -49.00670000     -32.22260000     -71.99220000
C      -48.05080000     -33.23650000     -71.85830000
C      -47.00340000     -33.00140000     -70.98760000
C      -46.94250000     -31.76700000     -70.30940000
C      -47.93500000     -30.82140000     -70.34350000
C      -48.93450000     -31.04600000     -71.20310000
H      -49.82400000     -32.39230000     -72.64020000
H      -46.28030000     -33.72830000     -70.84630000
H      -47.86490000     -29.95390000     -69.67550000
H      -49.84090000     -30.41470000     -71.18440000
C      -45.74550000     -31.68060000     -69.39000000
H      -45.22700000     -32.64020000     -69.36950000
H      -46.00360000     -31.47980000     -68.33480000
C      -48.12760000     -34.57360000     -72.44270000
H      -47.82670000     -35.29200000     -71.76490000
H      -49.19760000     -34.81880000     -72.61530000
S      -44.63900000     -30.27560000     -69.91280000
S      -47.20050000     -34.63600000     -74.02040000
C      -44.22740000     -30.77540000     -71.61870000
H      -45.11550000     -31.30030000     -72.02560000
H      -43.97010000     -29.87880000     -72.21810000
C      -45.85280000     -33.42620000     -74.03290000
H      -46.05330000     -32.81310000     -73.14350000
H      -46.00940000     -32.84500000     -74.91510000
C      -44.42010000     -34.08160000     -73.90190000
H      -44.31490000     -34.84940000     -74.66550000
H      -43.67050000     -33.30690000     -74.04840000
C      -43.01840000     -31.74180000     -71.71970000
H      -42.04120000     -31.20380000     -71.45050000
H      -43.00420000     -31.93620000     -72.74480000
C      -43.12970000     -32.95190000     -70.83750000
C      -42.67630000     -33.08850000     -69.55780000
C      -43.68100000     -34.21550000     -71.32260000
H      -42.18120000     -32.36710000     -68.97180000
C      -43.71020000     -35.13130000     -70.23100000
C      -44.25550000     -34.73840000     -72.54370000
C      -44.41620000     -36.06550000     -72.44840000
S      -42.91050000     -34.63970000     -68.84780000
S      -44.13580000     -36.74190000     -70.83110000
H      -44.84550000     -36.76470000     -73.12140000
