40
Properties=species:S:1:pos:R:3 #=T CELL(abcABC):=T 1.889726e+02=T 90.00000=T Traj:=T positionsangstrom=T Step:=T 0=T Bead:=T pbc="F F F"
C      -48.80130000     -32.73520000     -72.20610000
C      -47.76590000     -33.52430000     -71.76320000
C      -46.90910000     -32.97910000     -70.82560000
C      -46.93580000     -31.71320000     -70.36780000
C      -48.09510000     -30.89390000     -70.75880000
C      -48.84660000     -31.37300000     -71.77710000
H      -49.40040000     -33.10030000     -73.05900000
H      -46.07890000     -33.58550000     -70.43590000
H      -48.33280000     -29.89830000     -70.51010000
H      -49.60370000     -30.81470000     -72.32180000
C      -45.95610000     -31.26390000     -69.33740000
H      -45.54720000     -32.14950000     -68.88420000
H      -46.47700000     -30.78950000     -68.49950000
C      -47.53670000     -34.85160000     -72.50220000
H      -46.81420000     -35.43810000     -71.98810000
H      -48.40900000     -35.46450000     -72.54610000
S      -44.71860000     -30.13800000     -70.00930000
S      -46.86280000     -34.52770000     -74.30120000
C      -44.21980000     -30.89690000     -71.59610000
H      -44.97000000     -31.58980000     -71.84290000
H      -44.02620000     -30.07660000     -72.32920000
C      -45.48090000     -33.38910000     -74.05750000
H      -45.69350000     -32.65470000     -73.29070000
H      -45.36530000     -32.84740000     -75.03920000
C      -44.19880000     -34.15110000     -73.81230000
H      -44.09730000     -34.91220000     -74.59660000
H      -43.33570000     -33.40600000     -73.82730000
C      -42.94130000     -31.71230000     -71.56510000
H      -42.16630000     -31.07230000     -71.11710000
H      -42.61690000     -31.87790000     -72.58560000
C      -43.21090000     -32.93410000     -70.74210000
C      -42.85010000     -32.95690000     -69.40650000
C      -43.64420000     -34.23520000     -71.18980000
H      -42.47050000     -32.16680000     -68.83540000
C      -43.86810000     -35.13420000     -70.15180000
C      -44.08860000     -34.84870000     -72.45090000
C      -44.45570000     -36.19380000     -72.30710000
S      -43.43060000     -34.47110000     -68.60700000
S      -44.46250000     -36.68080000     -70.63070000
H      -44.97010000     -36.71660000     -73.14820000
