40
Properties=species:S:1:pos:R:3 #=T CELL(abcABC):=T 1.889726e+02=T 90.00000=T Traj:=T positionsangstrom=T Step:=T 0=T Bead:=T pbc="F F F"
C      -47.10890000     -36.73220000     -70.16040000
C      -47.64770000     -35.52300000     -70.67020000
C      -47.52840000     -35.26370000     -72.05190000
C      -46.59170000     -35.98210000     -72.80290000
C      -46.15950000     -37.21740000     -72.29650000
C      -46.46320000     -37.60660000     -71.03930000
H      -47.10830000     -36.96850000     -69.11340000
H      -48.26800000     -34.43370000     -72.40240000
H      -45.61680000     -37.90670000     -72.93570000
H      -46.02130000     -38.62990000     -70.68090000
C      -46.29800000     -35.55420000     -74.19170000
H      -46.40780000     -34.44880000     -74.24530000
H      -46.85600000     -36.09810000     -74.89960000
C      -48.53340000     -34.75940000     -69.67840000
H      -49.40530000     -35.34780000     -69.51070000
H      -48.19710000     -34.82290000     -68.63340000
S      -44.41690000     -35.57140000     -74.51080000
S      -49.12570000     -33.10400000     -70.23000000
C      -43.85060000     -33.87230000     -74.05820000
H      -42.81120000     -33.83790000     -74.32670000
H      -44.42710000     -33.04910000     -74.63370000
C      -47.70100000     -32.12740000     -69.57080000
H      -47.39660000     -32.49500000     -68.60520000
H      -48.08370000     -31.07850000     -69.50550000
C      -46.55580000     -32.18250000     -70.62180000
H      -46.35320000     -33.21750000     -70.79920000
H      -46.96090000     -31.75330000     -71.58680000
C      -44.13630000     -33.73440000     -72.52810000
H      -43.78390000     -34.63340000     -72.02340000
H      -45.25670000     -33.70290000     -72.47570000
C      -43.41800000     -32.53360000     -71.90220000
C      -42.10720000     -32.29520000     -72.11830000
C      -43.94820000     -31.66820000     -70.89560000
H      -41.47990000     -32.83780000     -72.76690000
C      -43.00200000     -30.86350000     -70.28020000
C      -45.29330000     -31.47780000     -70.23410000
C      -45.18170000     -30.57050000     -69.17490000
S      -41.41020000     -31.06130000     -71.00740000
S      -43.56380000     -29.92500000     -68.97980000
H      -45.92060000     -30.20120000     -68.46200000
