40
Properties=species:S:1:pos:R:3 #=T CELL(abcABC):=T 1.889726e+02=T 90.00000=T Traj:=T positionsangstrom=T Step:=T 0=T Bead:=T pbc="F F F"
C      -47.35290000     -36.87730000     -70.21010000
C      -48.04980000     -35.78960000     -70.72380000
C      -47.62940000     -35.31680000     -72.00720000
C      -46.68770000     -36.01730000     -72.77000000
C      -45.97350000     -37.04320000     -72.20220000
C      -46.27870000     -37.45670000     -70.93120000
H      -47.50840000     -37.12050000     -69.15840000
H      -48.24060000     -34.58010000     -72.35130000
H      -45.23230000     -37.52030000     -72.88960000
H      -45.64780000     -38.19640000     -70.47410000
C      -46.42540000     -35.38350000     -74.19520000
H      -46.90850000     -34.43170000     -74.30380000
H      -46.75920000     -36.02200000     -75.00500000
C      -49.01820000     -34.95040000     -69.89900000
H      -50.11360000     -35.25860000     -70.10180000
H      -48.92730000     -35.02230000     -68.80750000
S      -44.61440000     -35.33090000     -74.71130000
S      -49.17210000     -33.11220000     -70.25690000
C      -43.85800000     -33.83680000     -73.87180000
H      -42.76290000     -33.71050000     -74.18590000
H      -44.35760000     -32.98890000     -74.30130000
C      -47.64010000     -32.37250000     -69.59800000
H      -47.59110000     -32.68380000     -68.52690000
H      -47.82210000     -31.30280000     -69.64420000
C      -46.27300000     -32.66850000     -70.37110000
H      -45.89520000     -33.69450000     -70.27450000
H      -46.54640000     -32.54740000     -71.40290000
C      -43.92370000     -33.83710000     -72.38260000
H      -43.46450000     -34.76170000     -72.01840000
H      -44.96740000     -33.90690000     -72.03980000
C      -43.22910000     -32.62730000     -71.70940000
C      -41.96680000     -32.25690000     -72.07110000
C      -43.77720000     -31.82850000     -70.66860000
H      -41.35970000     -32.64870000     -72.88960000
C      -42.88220000     -30.81050000     -70.33200000
C      -45.10800000     -31.73510000     -70.02400000
C      -45.07350000     -30.70620000     -69.07890000
S      -41.34770000     -30.86890000     -71.13300000
S      -43.53320000     -29.72670000     -69.10900000
H      -45.95940000     -30.41270000     -68.54990000
