40
Properties=species:S:1:pos:R:3 #=T CELL(abcABC):=T 1.889726e+02=T 90.00000=T Traj:=T positionsangstrom=T Step:=T 0=T Bead:=T pbc="F F F"
C      -48.28200000     -33.46830000     -73.93260000
C      -47.18850000     -33.96780000     -73.17770000
C      -46.92470000     -33.36850000     -71.92500000
C      -47.73480000     -32.28730000     -71.38870000
C      -48.83340000     -31.89220000     -72.18990000
C      -49.02880000     -32.47360000     -73.42950000
H      -48.59390000     -33.86010000     -74.88780000
H      -46.01180000     -33.63630000     -71.30590000
H      -49.38220000     -31.05250000     -71.89270000
H      -49.90230000     -32.06760000     -74.00470000
C      -47.37740000     -31.76480000     -70.06010000
H      -46.74330000     -32.47580000     -69.57430000
H      -48.20260000     -31.53100000     -69.41810000
C      -46.37110000     -35.17430000     -73.53430000
H      -46.06840000     -35.66220000     -72.64360000
H      -46.92190000     -35.88820000     -74.18480000
S      -46.51440000     -30.11850000     -70.35440000
S      -44.83210000     -34.76330000     -74.63070000
C      -45.03990000     -30.65540000     -71.23100000
H      -45.23020000     -31.49460000     -71.96480000
H      -44.63660000     -29.79740000     -71.80770000
C      -44.09290000     -33.29180000     -73.85290000
H      -44.94320000     -32.73700000     -73.36970000
H      -43.75590000     -32.65490000     -74.62340000
C      -42.90760000     -33.59850000     -72.86420000
H      -42.18760000     -34.22240000     -73.41960000
H      -42.27920000     -32.72020000     -72.68560000
C      -43.82510000     -31.11080000     -70.30520000
H      -43.66950000     -30.34250000     -69.54990000
H      -42.97060000     -31.08520000     -71.00990000
C      -43.97260000     -32.46870000     -69.68730000
C      -44.32500000     -32.56310000     -68.35640000
C      -43.72530000     -33.73610000     -70.32610000
H      -44.57560000     -31.66730000     -67.79570000
C      -43.99250000     -34.74890000     -69.41150000
C      -43.23820000     -34.28690000     -71.55240000
C      -43.11390000     -35.64350000     -71.47340000
S      -44.53850000     -34.24690000     -67.84960000
S      -43.57190000     -36.40450000     -69.95770000
H      -42.84830000     -36.20300000     -72.34960000
