40
Properties=species:S:1:pos:R:3 #=T CELL(abcABC):=T 1.889726e+02=T 90.00000=T Traj:=T positionsangstrom=T Step:=T 0=T Bead:=T pbc="F F F"
C      -47.54070000     -37.19480000     -70.95810000
C      -48.11270000     -35.97760000     -71.29830000
C      -47.64820000     -35.32550000     -72.42260000
C      -46.63350000     -35.73980000     -73.25420000
C      -46.08240000     -36.97090000     -72.89150000
C      -46.45220000     -37.72070000     -71.76020000
H      -47.99220000     -37.75560000     -70.10800000
H      -48.28240000     -34.41250000     -72.65340000
H      -45.22470000     -37.28420000     -73.53920000
H      -46.15350000     -38.73760000     -71.59520000
C      -46.29020000     -34.95040000     -74.44660000
H      -46.85480000     -33.97060000     -74.48910000
H      -46.54830000     -35.60890000     -75.25490000
C      -49.12410000     -35.28320000     -70.36110000
H      -50.18550000     -35.09110000     -70.71990000
H      -49.19630000     -35.91920000     -69.46920000
S      -44.48380000     -34.72580000     -74.74620000
S      -48.57350000     -33.55510000     -69.81620000
C      -44.10090000     -33.26660000     -73.62930000
H      -43.61930000     -32.52790000     -74.29310000
H      -45.00820000     -32.74230000     -73.41440000
C      -46.89240000     -33.80940000     -69.10610000
H      -46.75810000     -34.81430000     -68.68640000
H      -46.83170000     -33.20630000     -68.17410000
C      -45.63280000     -33.54650000     -70.04390000
H      -44.91330000     -34.30120000     -69.76930000
H      -45.87270000     -33.72290000     -71.06090000
C      -43.38730000     -33.56190000     -72.41490000
H      -42.47840000     -34.05830000     -72.65950000
H      -44.02020000     -34.25240000     -71.83780000
C      -43.02580000     -32.33330000     -71.62130000
C      -41.97910000     -31.56490000     -71.98190000
C      -43.79800000     -31.75830000     -70.50900000
H      -41.27700000     -31.62340000     -72.87740000
C      -43.23840000     -30.59530000     -70.03440000
C      -44.96280000     -32.24730000     -69.83610000
C      -45.27300000     -31.32030000     -68.87530000
S      -41.81090000     -30.07820000     -70.98680000
S      -44.24640000     -29.91510000     -68.70080000
H      -46.21050000     -31.41120000     -68.28430000
