40
Properties=species:S:1:pos:R:3 #=T CELL(abcABC):=T 1.889726e+02=T 90.00000=T Traj:=T positionsangstrom=T Step:=T 0=T Bead:=T pbc="F F F"
C      -48.11010000     -33.29910000     -73.76530000
C      -47.18980000     -33.89340000     -72.95990000
C      -46.95900000     -33.38650000     -71.63360000
C      -47.67940000     -32.24930000     -71.16630000
C      -48.55290000     -31.62000000     -72.13000000
C      -48.76680000     -32.12880000     -73.36020000
H      -48.38630000     -33.73990000     -74.71820000
H      -46.32820000     -33.90210000     -70.95720000
H      -49.11500000     -30.73750000     -71.79860000
H      -49.49090000     -31.66290000     -73.96490000
C      -47.24210000     -31.66330000     -69.80900000
H      -46.69000000     -32.44740000     -69.27880000
H      -48.20230000     -31.40850000     -69.32380000
C      -46.48790000     -35.17980000     -73.48490000
H      -46.06580000     -35.85600000     -72.65840000
H      -47.21400000     -35.81530000     -73.95780000
S      -46.11280000     -30.21600000     -69.84300000
S      -45.23980000     -34.73390000     -74.80290000
C      -44.92450000     -30.71430000     -71.10590000
H      -45.40860000     -31.40470000     -71.79590000
H      -44.69190000     -29.87440000     -71.84620000
C      -44.28740000     -33.43390000     -73.89790000
H      -45.01490000     -32.87680000     -73.36670000
H      -43.97370000     -32.65950000     -74.67080000
C      -43.07870000     -33.87050000     -73.03370000
H      -42.48310000     -34.59150000     -73.58150000
H      -42.57670000     -32.98300000     -72.72450000
C      -43.52950000     -31.23760000     -70.61880000
H      -43.07750000     -30.49810000     -69.93730000
H      -42.92810000     -31.30940000     -71.52620000
C      -43.64360000     -32.48910000     -69.87230000
C      -44.03740000     -32.49720000     -68.56090000
C      -43.62880000     -33.83220000     -70.49110000
H      -43.89590000     -31.63570000     -67.93730000
C      -43.86300000     -34.77770000     -69.48550000
C      -43.43480000     -34.49660000     -71.74340000
C      -43.63740000     -35.85300000     -71.65660000
S      -44.43150000     -34.09890000     -68.04200000
S      -44.00930000     -36.40830000     -70.07800000
H      -43.65210000     -36.67300000     -72.36720000
