40
Properties=species:S:1:pos:R:3 #=T CELL(abcABC):=T 1.889726e+02=T 90.00000=T Traj:=T positionsangstrom=T Step:=T 0=T Bead:=T pbc="F F F"
C      -48.21230000     -33.54740000     -73.90160000
C      -47.18410000     -34.15970000     -73.10430000
C      -46.91590000     -33.59690000     -71.84420000
C      -47.63040000     -32.47590000     -71.35500000
C      -48.69090000     -31.94750000     -72.18160000
C      -48.91140000     -32.49370000     -73.43090000
H      -48.40020000     -33.74340000     -74.94710000
H      -46.18050000     -33.95780000     -71.15670000
H      -49.33440000     -31.11310000     -71.84360000
H      -49.78810000     -32.13410000     -73.95080000
C      -47.35450000     -31.73010000     -70.04140000
H      -46.78620000     -32.27930000     -69.22670000
H      -48.25060000     -31.37550000     -69.46360000
C      -46.24380000     -35.25380000     -73.60230000
H      -45.87570000     -35.82540000     -72.73950000
H      -46.89800000     -35.91940000     -74.17890000
S      -46.54060000     -30.09050000     -70.34420000
S      -44.82020000     -34.70230000     -74.64770000
C      -45.01080000     -30.63920000     -71.35150000
H      -45.26880000     -31.30760000     -72.14260000
H      -44.66960000     -29.74860000     -71.91120000
C      -44.23690000     -33.14190000     -73.78880000
H      -45.21600000     -32.80110000     -73.38830000
H      -43.95060000     -32.36040000     -74.49560000
C      -43.05000000     -33.39270000     -72.81150000
H      -42.28540000     -33.83710000     -73.45310000
H      -42.80650000     -32.40700000     -72.42390000
C      -43.88210000     -31.14400000     -70.42480000
H      -43.63900000     -30.41020000     -69.67630000
H      -42.94230000     -31.20250000     -71.01210000
C      -44.11250000     -32.46750000     -69.75310000
C      -44.52580000     -32.51050000     -68.44890000
C      -43.81240000     -33.77390000     -70.27040000
H      -44.86520000     -31.62290000     -67.87060000
C      -43.95080000     -34.81630000     -69.34220000
C      -43.30400000     -34.27880000     -71.55290000
C      -43.11130000     -35.62630000     -71.53470000
S      -44.52290000     -34.20390000     -67.83650000
S      -43.48030000     -36.37760000     -69.95410000
H      -42.74640000     -36.20280000     -72.42400000
