40
Properties=species:S:1:pos:R:3 #=T CELL(abcABC):=T 1.889726e+02=T 90.00000=T Traj:=T positionsangstrom=T Step:=T 0=T Bead:=T pbc="F F F"
C      -48.38180000     -32.84230000     -73.64740000
C      -47.52210000     -33.68410000     -72.98440000
C      -47.09120000     -33.23570000     -71.68600000
C      -47.45720000     -31.96060000     -71.18250000
C      -48.35280000     -31.12980000     -71.89220000
C      -48.72460000     -31.61330000     -73.12370000
H      -48.78160000     -33.23500000     -74.58600000
H      -46.47240000     -33.90680000     -71.10880000
H      -48.81490000     -30.22250000     -71.58560000
H      -49.51100000     -31.06950000     -73.68610000
C      -47.09620000     -31.60960000     -69.78300000
H      -46.79350000     -32.49180000     -69.19400000
H      -47.91410000     -30.98200000     -69.31980000
C      -47.20250000     -35.11190000     -73.43250000
H      -46.96320000     -35.76090000     -72.61380000
H      -48.14860000     -35.58970000     -73.81940000
S      -45.70060000     -30.39410000     -69.69720000
S      -45.68350000     -35.20540000     -74.60590000
C      -44.69580000     -30.75040000     -71.16730000
H      -45.37620000     -31.47870000     -71.77020000
H      -44.68060000     -29.85440000     -71.76370000
C      -44.80990000     -33.62000000     -74.16510000
H      -45.55710000     -33.00180000     -73.66870000
H      -44.44630000     -33.14330000     -75.04970000
C      -43.61910000     -33.88540000     -73.25210000
H      -43.00290000     -34.55590000     -73.87470000
H      -43.07610000     -32.90060000     -73.15020000
C      -43.32970000     -31.24480000     -70.80780000
H      -42.88280000     -30.48590000     -70.22800000
H      -42.73210000     -31.47670000     -71.68290000
C      -43.50670000     -32.50860000     -69.99700000
C      -43.42180000     -32.53780000     -68.63220000
C      -43.72040000     -33.85560000     -70.55170000
H      -43.32220000     -31.69370000     -67.94830000
C      -43.88380000     -34.81420000     -69.54020000
C      -43.76080000     -34.48030000     -71.87370000
C      -43.94720000     -35.83360000     -71.81040000
S      -43.69670000     -34.19290000     -67.95310000
S      -44.05810000     -36.42740000     -70.18840000
H      -44.01440000     -36.65220000     -72.59900000
