40
Properties=species:S:1:pos:R:3 #=T CELL(abcABC):=T 1.889726e+02=T 90.00000=T Traj:=T positionsangstrom=T Step:=T 0=T Bead:=T pbc="F F F"
C      -48.15780000     -33.42450000     -73.88990000
C      -47.15390000     -33.94310000     -73.06850000
C      -46.95300000     -33.35680000     -71.78910000
C      -47.81740000     -32.27610000     -71.36750000
C      -48.82530000     -31.86090000     -72.24740000
C      -49.03760000     -32.48190000     -73.47650000
H      -48.34150000     -33.93730000     -74.82310000
H      -46.18610000     -33.78680000     -71.06360000
H      -49.57250000     -31.10250000     -71.99410000
H      -49.77480000     -32.08240000     -74.19150000
C      -47.49860000     -31.60870000     -70.04580000
H      -47.04880000     -32.42580000     -69.40030000
H      -48.40720000     -31.30880000     -69.49960000
C      -46.36700000     -35.17410000     -73.52470000
H      -45.92870000     -35.76640000     -72.69660000
H      -46.79900000     -35.91990000     -74.23360000
S      -46.40100000     -30.12320000     -70.20300000
S      -44.90650000     -34.66310000     -74.64400000
C      -44.97730000     -30.58620000     -71.25750000
H      -45.30490000     -31.29160000     -72.02790000
H      -44.67670000     -29.63000000     -71.62600000
C      -44.05320000     -33.29840000     -73.84180000
H      -44.75460000     -32.62650000     -73.33560000
H      -43.60890000     -32.76880000     -74.69790000
C      -42.87170000     -33.57840000     -72.86590000
H      -42.11090000     -34.17770000     -73.42780000
H      -42.42420000     -32.58810000     -72.67050000
C      -43.77650000     -31.14370000     -70.40590000
H      -43.50990000     -30.44690000     -69.60090000
H      -42.92130000     -31.17170000     -71.08480000
C      -43.93040000     -32.53180000     -69.75080000
C      -44.42610000     -32.58380000     -68.43670000
C      -43.52490000     -33.85300000     -70.28090000
H      -44.69680000     -31.69470000     -67.85110000
C      -43.94390000     -34.81280000     -69.35820000
C      -43.24100000     -34.37890000     -71.61420000
C      -43.36310000     -35.76380000     -71.62850000
S      -44.42800000     -34.21200000     -67.85400000
S      -43.73330000     -36.47690000     -70.02830000
H      -43.13520000     -36.35880000     -72.46420000
