40
Properties=species:S:1:pos:R:3 #=T CELL(abcABC):=T 1.889726e+02=T 90.00000=T Traj:=T positionsangstrom=T Step:=T 0=T Bead:=T pbc="F F F"
C      -47.96300000     -33.80340000     -73.98710000
C      -47.04270000     -34.18710000     -73.00460000
C      -47.08560000     -33.58460000     -71.77170000
C      -47.81730000     -32.40140000     -71.54600000
C      -48.69250000     -31.93870000     -72.58450000
C      -48.83390000     -32.71360000     -73.77430000
H      -47.98700000     -34.32140000     -74.97180000
H      -46.41550000     -33.90870000     -70.93480000
H      -49.31780000     -31.03950000     -72.55280000
H      -49.59830000     -32.45580000     -74.54810000
C      -47.67170000     -31.76190000     -70.19360000
H      -47.30670000     -32.47620000     -69.43090000
H      -48.66090000     -31.44910000     -69.81890000
C      -46.08870000     -35.34940000     -73.28790000
H      -45.61390000     -35.74480000     -72.42130000
H      -46.50100000     -36.17930000     -73.79290000
S      -46.59510000     -30.17190000     -70.12100000
S      -44.75420000     -34.79360000     -74.56220000
C      -45.18760000     -30.56110000     -71.17150000
H      -45.45750000     -31.42180000     -71.80330000
H      -44.90480000     -29.72960000     -71.79670000
C      -44.02620000     -33.26390000     -73.85070000
H      -44.78550000     -32.68860000     -73.30530000
H      -43.78200000     -32.68970000     -74.71450000
C      -42.89550000     -33.46650000     -72.82170000
H      -41.98670000     -33.89790000     -73.24770000
H      -42.51990000     -32.48270000     -72.61520000
C      -43.89100000     -31.01950000     -70.43590000
H      -43.50460000     -30.31820000     -69.68600000
H      -43.07550000     -31.09820000     -71.11140000
C      -44.00670000     -32.34420000     -69.79050000
C      -44.39320000     -32.35660000     -68.47960000
C      -43.75260000     -33.67510000     -70.33130000
H      -44.64010000     -31.52970000     -67.81160000
C      -43.99330000     -34.68530000     -69.36860000
C      -43.26550000     -34.25040000     -71.57280000
C      -43.15350000     -35.60270000     -71.50240000
S      -44.49900000     -34.08950000     -67.83640000
S      -43.68840000     -36.28600000     -69.96970000
H      -42.87100000     -36.24400000     -72.31300000
