40
Properties=species:S:1:pos:R:3 #=T CELL(abcABC):=T 1.889726e+02=T 90.00000=T Traj:=T positionsangstrom=T Step:=T 0=T Bead:=T pbc="F F F"
C      -47.35390000     -37.14690000     -71.72720000
C      -47.66100000     -35.79670000     -71.76610000
C      -47.42890000     -35.05340000     -72.94940000
C      -46.56700000     -35.63720000     -73.92550000
C      -46.17330000     -36.97590000     -73.82280000
C      -46.61340000     -37.76760000     -72.73960000
H      -47.52820000     -37.82990000     -70.85200000
H      -47.83130000     -34.05860000     -73.15790000
H      -45.47820000     -37.31670000     -74.64130000
H      -46.31150000     -38.80670000     -72.69980000
C      -46.05980000     -34.84980000     -75.17670000
H      -46.82090000     -34.05840000     -75.47160000
H      -45.97400000     -35.59140000     -75.96120000
C      -48.43180000     -35.30720000     -70.54380000
H      -49.31450000     -34.85850000     -71.02410000
H      -48.84190000     -36.17530000     -70.04030000
S      -44.38130000     -34.10750000     -74.98530000
S      -47.48440000     -34.06240000     -69.51350000
C      -44.68440000     -32.88490000     -73.59670000
H      -44.72570000     -31.83260000     -74.04520000
H      -45.65270000     -33.16970000     -73.18590000
C      -45.89430000     -34.97790000     -68.87750000
H      -46.08250000     -36.04590000     -69.20690000
H      -45.93320000     -34.96040000     -67.80670000
C      -44.70910000     -34.34800000     -69.59560000
H      -43.77160000     -34.87640000     -69.19130000
H      -44.74590000     -34.49520000     -70.63440000
C      -43.47320000     -32.93630000     -72.63920000
H      -42.59810000     -32.70440000     -73.29650000
H      -43.21770000     -33.87890000     -72.24690000
C      -43.54310000     -31.76990000     -71.60730000
C      -43.06400000     -30.54070000     -71.96000000
C      -43.94380000     -31.85850000     -70.21310000
H      -42.71140000     -30.23270000     -72.90650000
C      -43.92120000     -30.63140000     -69.55050000
C      -44.49560000     -32.84810000     -69.33450000
C      -44.85570000     -32.24640000     -68.14000000
S      -43.22100000     -29.38050000     -70.58850000
S      -44.65790000     -30.49870000     -67.98870000
H      -45.34260000     -32.82260000     -67.45050000
