40
Properties=species:S:1:pos:R:3 #=T CELL(abcABC):=T 1.889726e+02=T 90.00000=T Traj:=T positionsangstrom=T Step:=T 0=T Bead:=T pbc="F F F"
C      -47.75770000     -33.60630000     -74.11260000
C      -47.07870000     -34.23450000     -73.08400000
C      -47.15810000     -33.71590000     -71.78070000
C      -47.84490000     -32.49610000     -71.55390000
C      -48.54880000     -31.87560000     -72.60270000
C      -48.51410000     -32.44390000     -73.89920000
H      -47.74930000     -34.07870000     -75.08120000
H      -46.62980000     -34.17140000     -70.91730000
H      -49.05810000     -30.99160000     -72.30610000
H      -48.90800000     -31.98460000     -74.85230000
C      -47.74230000     -31.84540000     -70.18100000
H      -47.31060000     -32.48460000     -69.49570000
H      -48.73540000     -31.53130000     -69.77570000
C      -46.23500000     -35.44930000     -73.34830000
H      -45.92090000     -35.95930000     -72.41530000
H      -46.87710000     -36.14440000     -73.99210000
S      -46.71800000     -30.22250000     -70.23090000
S      -44.73570000     -35.00340000     -74.41590000
C      -45.30760000     -30.52640000     -71.39390000
H      -45.81930000     -31.21250000     -72.06990000
H      -45.11240000     -29.66900000     -72.06900000
C      -44.21670000     -33.34460000     -73.66930000
H      -45.01270000     -33.08060000     -73.03630000
H      -44.18680000     -32.54130000     -74.41800000
C      -43.00050000     -33.50560000     -72.79860000
H      -42.13650000     -33.91880000     -73.29060000
H      -42.55990000     -32.57110000     -72.54440000
C      -44.05150000     -31.06740000     -70.69330000
H      -43.83230000     -30.31120000     -69.92470000
H      -43.17240000     -31.14260000     -71.36880000
C      -44.22770000     -32.39810000     -69.96540000
C      -44.65260000     -32.32490000     -68.62980000
C      -43.85370000     -33.70630000     -70.34050000
H      -44.91640000     -31.39680000     -68.09320000
C      -43.91220000     -34.59700000     -69.26730000
C      -43.29710000     -34.26880000     -71.53860000
C      -42.94930000     -35.61120000     -71.37310000
S      -44.56970000     -33.94450000     -67.80080000
S      -43.24470000     -36.16000000     -69.72610000
H      -42.52840000     -36.20180000     -72.24170000
