40
Properties=species:S:1:pos:R:3 #=T CELL(abcABC):=T 1.889726e+02=T 90.00000=T Traj:=T positionsangstrom=T Step:=T 0=T Bead:=T pbc="F F F"
C      -43.48200000     -34.83220000     -73.62370000
C      -44.02720000     -33.64560000     -74.20660000
C      -45.49870000     -33.58630000     -74.43270000
C      -46.24820000     -34.67930000     -74.08020000
C      -45.65400000     -35.80240000     -73.52830000
C      -44.34950000     -35.87620000     -73.28050000
H      -42.43460000     -34.90530000     -73.31970000
H      -45.84770000     -32.63190000     -74.88300000
H      -46.29890000     -36.64030000     -73.40360000
H      -43.85350000     -36.69230000     -72.87560000
C      -47.78490000     -34.75230000     -74.33850000
H      -48.17210000     -35.77070000     -74.24950000
H      -47.82400000     -34.59810000     -75.43540000
C      -43.14220000     -32.58970000     -74.65300000
H      -42.12260000     -32.94440000     -74.63440000
H      -43.37000000     -32.17330000     -75.60510000
S      -48.69420000     -33.42480000     -73.44960000
S      -43.40030000     -31.08000000     -73.47010000
C      -48.24300000     -33.75610000     -71.68060000
H      -49.04720000     -33.39820000     -71.05560000
H      -48.12460000     -34.90760000     -71.52910000
C      -43.64560000     -32.01860000     -71.88080000
H      -42.65510000     -32.48020000     -71.62110000
H      -44.33290000     -32.79400000     -72.13380000
C      -44.07650000     -31.13460000     -70.71230000
H      -43.26740000     -30.41990000     -70.56090000
H      -45.02460000     -30.49750000     -71.06880000
C      -46.82010000     -33.16990000     -71.25220000
H      -46.93870000     -32.10100000     -71.36500000
H      -46.14520000     -33.53020000     -71.96470000
C      -46.33810000     -33.57760000     -69.88920000
C      -46.77080000     -34.74110000     -69.21490000
C      -45.21370000     -32.95400000     -69.16680000
H      -47.56780000     -35.37240000     -69.63970000
C      -45.04100000     -33.47940000     -67.84040000
C      -44.22910000     -31.86730000     -69.46200000
C      -43.33930000     -31.72700000     -68.37010000
S      -46.00760000     -34.95900000     -67.57250000
S      -43.72920000     -32.76160000     -66.98720000
H      -42.68980000     -30.85000000     -68.18380000
