40
Properties=species:S:1:pos:R:3 #=T CELL(abcABC):=T 1.889726e+02=T 90.00000=T Traj:=T positionsangstrom=T Step:=T 0=T Bead:=T pbc="F F F"
C      -48.02820000     -33.69090000     -73.94260000
C      -47.11900000     -34.22230000     -73.05730000
C      -46.85930000     -33.58930000     -71.83240000
C      -47.64680000     -32.52420000     -71.45360000
C      -48.62660000     -31.96730000     -72.35410000
C      -48.83270000     -32.61520000     -73.55700000
H      -48.32820000     -34.10430000     -74.91030000
H      -46.13520000     -33.97310000     -71.16600000
H      -49.22490000     -31.04590000     -72.09010000
H      -49.49130000     -32.14530000     -74.24840000
C      -47.44010000     -31.81800000     -70.11960000
H      -46.82050000     -32.42030000     -69.54790000
H      -48.42710000     -31.62680000     -69.65040000
C      -46.24700000     -35.34040000     -73.48310000
H      -45.65500000     -35.83780000     -72.62180000
H      -46.77960000     -36.04420000     -74.09790000
S      -46.66360000     -30.18000000     -70.35370000
S      -44.89170000     -34.66230000     -74.63060000
C      -45.09320000     -30.53930000     -71.22530000
H      -45.28140000     -31.17730000     -72.08300000
H      -44.83750000     -29.52660000     -71.54430000
C      -44.20160000     -33.21360000     -73.62350000
H      -44.92180000     -32.75650000     -73.01480000
H      -43.86430000     -32.48980000     -74.43510000
C      -42.94480000     -33.48680000     -72.85820000
H      -42.28370000     -34.10870000     -73.51000000
H      -42.41850000     -32.51970000     -72.63700000
C      -43.89180000     -31.02770000     -70.36040000
H      -43.63400000     -30.21770000     -69.64860000
H      -43.03400000     -31.14790000     -71.03950000
C      -44.03280000     -32.37510000     -69.71060000
C      -44.44370000     -32.51650000     -68.40710000
C      -43.69410000     -33.68050000     -70.30100000
H      -44.70940000     -31.75280000     -67.72180000
C      -43.93060000     -34.72590000     -69.36110000
C      -43.24690000     -34.24620000     -71.56610000
C      -43.15600000     -35.60040000     -71.53180000
S      -44.49850000     -34.12540000     -67.80720000
S      -43.61350000     -36.31070000     -69.98780000
H      -42.80750000     -36.22170000     -72.38440000
