40
Properties=species:S:1:pos:R:3 #=T CELL(abcABC):=T 1.889726e+02=T 90.00000=T Traj:=T positionsangstrom=T Step:=T 0=T Bead:=T pbc="F F F"
C      -47.85920000     -33.94480000     -73.84620000
C      -47.00310000     -34.45510000     -72.81580000
C      -46.97990000     -33.71530000     -71.62760000
C      -47.77810000     -32.60940000     -71.38490000
C      -48.64580000     -32.13670000     -72.37260000
C      -48.70710000     -32.90210000     -73.61100000
H      -47.85930000     -34.44430000     -74.79160000
H      -46.30910000     -34.09850000     -70.83100000
H      -49.12590000     -31.20710000     -72.29430000
H      -49.34150000     -32.55050000     -74.38520000
C      -47.65690000     -31.83220000     -70.16090000
H      -47.12200000     -32.41850000     -69.36410000
H      -48.62010000     -31.52360000     -69.83970000
C      -46.07380000     -35.50860000     -73.11030000
H      -45.58520000     -35.96370000     -72.22270000
H      -46.52710000     -36.41250000     -73.64690000
S      -46.73920000     -30.10820000     -70.38950000
S      -44.83080000     -34.84240000     -74.40440000
C      -45.41210000     -30.47670000     -71.53240000
H      -45.72480000     -31.21780000     -72.27690000
H      -45.10400000     -29.52690000     -72.11960000
C      -44.20990000     -33.34160000     -73.67150000
H      -44.92250000     -33.00520000     -72.88360000
H      -44.11220000     -32.52060000     -74.36930000
C      -42.95480000     -33.58620000     -72.90290000
H      -42.19650000     -34.20490000     -73.36500000
H      -42.42760000     -32.67100000     -72.69820000
C      -44.13850000     -31.00580000     -70.93520000
H      -43.71320000     -30.25750000     -70.28600000
H      -43.36020000     -31.12970000     -71.73260000
C      -44.14050000     -32.29610000     -69.99920000
C      -44.52760000     -32.24930000     -68.69200000
C      -43.86660000     -33.63280000     -70.42230000
H      -44.87130000     -31.39840000     -68.00050000
C      -43.86940000     -34.56970000     -69.34500000
C      -43.25500000     -34.23230000     -71.60240000
C      -42.90840000     -35.54110000     -71.43350000
S      -44.49020000     -33.81740000     -67.86410000
S      -43.37890000     -36.13890000     -69.82360000
H      -42.41580000     -36.18130000     -72.12710000
