40
Properties=species:S:1:pos:R:3 #=T CELL(abcABC):=T 1.889726e+02=T 90.00000=T Traj:=T positionsangstrom=T Step:=T 0=T Bead:=T pbc="F F F"
C      -48.13940000     -34.02320000     -73.90470000
C      -47.22680000     -34.49420000     -72.91590000
C      -47.17190000     -33.87220000     -71.64880000
C      -47.85680000     -32.69030000     -71.42400000
C      -48.62340000     -32.16070000     -72.45380000
C      -48.78900000     -32.84390000     -73.67920000
H      -48.26410000     -34.57770000     -74.85330000
H      -46.58460000     -34.29200000     -70.81640000
H      -49.04410000     -31.15750000     -72.33510000
H      -49.39040000     -32.37340000     -74.44520000
C      -47.61170000     -31.92810000     -70.16230000
H      -47.16470000     -32.60120000     -69.46130000
H      -48.59170000     -31.58500000     -69.78130000
C      -46.21040000     -35.51020000     -73.24380000
H      -45.54560000     -35.64360000     -72.39450000
H      -46.52110000     -36.46710000     -73.65350000
S      -46.80630000     -30.28590000     -70.35850000
S      -45.02820000     -34.89610000     -74.59030000
C      -45.23730000     -30.54570000     -71.32030000
H      -45.45180000     -31.32560000     -72.13210000
H      -45.02130000     -29.55810000     -71.84360000
C      -44.39950000     -33.29610000     -73.79490000
H      -45.11370000     -32.73470000     -73.16450000
H      -44.19680000     -32.55990000     -74.57450000
C      -43.12530000     -33.53130000     -72.95910000
H      -42.43410000     -34.07330000     -73.52040000
H      -42.69420000     -32.50590000     -72.77740000
C      -43.87450000     -30.92100000     -70.69870000
H      -43.47490000     -30.10710000     -69.99710000
H      -43.21690000     -30.87120000     -71.52980000
C      -43.90170000     -32.20720000     -69.89070000
C      -44.17250000     -32.14310000     -68.56660000
C      -43.70140000     -33.54830000     -70.36340000
H      -44.30840000     -31.24370000     -68.04460000
C      -43.80660000     -34.46980000     -69.30000000
C      -43.43650000     -34.19480000     -71.61230000
C      -43.13580000     -35.52060000     -71.43540000
S      -44.08580000     -33.70400000     -67.77580000
S      -43.33900000     -36.09940000     -69.77900000
H      -42.87050000     -36.17350000     -72.30170000
