40
Properties=species:S:1:pos:R:3 #=T CELL(abcABC):=T 1.889726e+02=T 90.00000=T Traj:=T positionsangstrom=T Step:=T 0=T Bead:=T pbc="F F F"
C      -47.93390000     -34.07770000     -73.59390000
C      -46.91990000     -34.44830000     -72.71350000
C      -46.83880000     -33.70680000     -71.48120000
C      -47.66100000     -32.63210000     -71.30650000
C      -48.49700000     -32.14250000     -72.31520000
C      -48.73850000     -32.93830000     -73.43310000
H      -48.09340000     -34.60190000     -74.52840000
H      -45.99740000     -33.89330000     -70.73800000
H      -49.08320000     -31.23150000     -72.08590000
H      -49.44550000     -32.57650000     -74.19300000
C      -47.56690000     -31.79580000     -70.03240000
H      -46.92320000     -32.33090000     -69.39650000
H      -48.47600000     -31.61860000     -69.42540000
C      -45.91110000     -35.59590000     -73.16020000
H      -45.29640000     -35.82320000     -72.32080000
H      -46.33540000     -36.53580000     -73.55530000
S      -46.85030000     -30.15430000     -70.37440000
S      -44.87560000     -34.98480000     -74.51420000
C      -45.39360000     -30.54200000     -71.48410000
H      -45.69630000     -31.31170000     -72.16740000
H      -45.24430000     -29.64890000     -72.03690000
C      -44.21090000     -33.39320000     -73.86940000
H      -45.00140000     -32.88230000     -73.33310000
H      -43.88680000     -32.84030000     -74.76710000
C      -43.00600000     -33.42590000     -72.93210000
H      -42.10000000     -33.78660000     -73.42990000
H      -42.81530000     -32.34040000     -72.76690000
C      -44.09450000     -30.81470000     -70.75300000
H      -44.00060000     -30.00130000     -70.04580000
H      -43.28820000     -30.65470000     -71.53950000
C      -44.10480000     -32.19760000     -69.96160000
C      -44.61300000     -32.26970000     -68.71720000
C      -43.68020000     -33.50100000     -70.46830000
H      -44.83260000     -31.38460000     -67.99700000
C      -43.82490000     -34.46140000     -69.44810000
C      -43.24810000     -34.13480000     -71.67140000
C      -43.07580000     -35.49440000     -71.52770000
S      -44.54980000     -33.90150000     -67.92910000
S      -43.41500000     -36.07460000     -69.90570000
H      -42.77620000     -36.17080000     -72.32000000
