40
Properties=species:S:1:pos:R:3 #=T CELL(abcABC):=T 1.889726e+02=T 90.00000=T Traj:=T positionsangstrom=T Step:=T 0=T Bead:=T pbc="F F F"
C      -48.05240000     -33.76260000     -73.99610000
C      -47.14090000     -34.22190000     -73.01050000
C      -47.14770000     -33.60890000     -71.78880000
C      -47.99710000     -32.49320000     -71.50930000
C      -48.93520000     -32.07800000     -72.48180000
C      -48.94360000     -32.71120000     -73.72500000
H      -47.96550000     -34.18530000     -74.98590000
H      -46.48220000     -33.97040000     -71.06490000
H      -49.71770000     -31.39060000     -72.12360000
H      -49.63850000     -32.47250000     -74.50070000
C      -47.84120000     -31.80360000     -70.14880000
H      -47.33080000     -32.44430000     -69.33000000
H      -48.81820000     -31.46480000     -69.79300000
C      -46.14420000     -35.41950000     -73.23760000
H      -45.71030000     -35.75030000     -72.29710000
H      -46.69610000     -36.18340000     -73.69090000
S      -46.76640000     -30.23420000     -70.31800000
S      -44.77790000     -35.05650000     -74.39400000
C      -45.30080000     -30.69940000     -71.43240000
H      -45.62460000     -31.54310000     -71.99080000
H      -45.18290000     -29.85470000     -72.12100000
C      -44.06690000     -33.36900000     -73.77780000
H      -44.91530000     -32.75010000     -73.39620000
H      -43.86710000     -32.90040000     -74.71640000
C      -42.85660000     -33.60800000     -72.85130000
H      -42.20610000     -34.33830000     -73.44230000
H      -42.29320000     -32.64060000     -72.74980000
C      -43.92420000     -30.95390000     -70.75230000
H      -43.75390000     -30.14010000     -70.02330000
H      -43.17860000     -30.79170000     -71.54270000
C      -43.94690000     -32.23280000     -69.95150000
C      -44.47530000     -32.20850000     -68.68620000
C      -43.67720000     -33.60650000     -70.40610000
H      -44.86320000     -31.33620000     -68.12010000
C      -43.72220000     -34.51010000     -69.30060000
C      -43.11130000     -34.29520000     -71.56940000
C      -42.75430000     -35.58560000     -71.25570000
S      -44.46480000     -33.78930000     -67.84640000
S      -43.37350000     -36.15880000     -69.75250000
H      -42.28030000     -36.36040000     -71.81840000
