40
Properties=species:S:1:pos:R:3 #=T CELL(abcABC):=T 1.889726e+02=T 90.00000=T Traj:=T positionsangstrom=T Step:=T 0=T Bead:=T pbc="F F F"
C      -48.12020000     -33.99360000     -73.83070000
C      -47.19910000     -34.41200000     -72.88750000
C      -46.95890000     -33.77640000     -71.67590000
C      -47.66410000     -32.62990000     -71.37000000
C      -48.64800000     -32.20830000     -72.30690000
C      -48.84130000     -32.78320000     -73.54900000
H      -48.27790000     -34.46700000     -74.80480000
H      -46.15200000     -34.03770000     -71.04740000
H      -49.26760000     -31.36450000     -72.01550000
H      -49.59100000     -32.32770000     -74.19080000
C      -47.45440000     -31.92140000     -70.06280000
H      -46.74640000     -32.48600000     -69.40610000
H      -48.35150000     -31.63370000     -69.51940000
C      -46.23900000     -35.55680000     -73.36700000
H      -45.69310000     -36.02540000     -72.56480000
H      -46.80710000     -36.38570000     -73.83730000
S      -46.78000000     -30.19250000     -70.44610000
S      -45.05190000     -34.83600000     -74.63100000
C      -45.45930000     -30.79630000     -71.55350000
H      -45.82250000     -31.72570000     -71.99890000
H      -45.38770000     -30.11300000     -72.30170000
C      -44.39010000     -33.31510000     -73.83630000
H      -45.22130000     -32.97370000     -73.17630000
H      -44.12620000     -32.67950000     -74.68100000
C      -43.12530000     -33.49970000     -72.94050000
H      -42.36290000     -34.14440000     -73.45080000
H      -42.72500000     -32.48810000     -72.78850000
C      -44.09890000     -31.06240000     -70.81780000
H      -43.91920000     -30.15960000     -70.17570000
H      -43.24980000     -31.05900000     -71.51090000
C      -44.10160000     -32.28010000     -69.92840000
C      -44.35720000     -32.17210000     -68.62240000
C      -43.68150000     -33.56770000     -70.35940000
H      -44.67100000     -31.35650000     -67.97460000
C      -43.64500000     -34.45830000     -69.26420000
C      -43.36100000     -34.20320000     -71.59410000
C      -43.23770000     -35.53950000     -71.34850000
S      -43.96200000     -33.69930000     -67.75900000
S      -43.35950000     -36.09740000     -69.68990000
H      -42.96040000     -36.23210000     -72.17470000
