40
Properties=species:S:1:pos:R:3 #=T CELL(abcABC):=T 1.889726e+02=T 90.00000=T Traj:=T positionsangstrom=T Step:=T 0=T Bead:=T pbc="F F F"
C      -48.59070000     -34.28970000     -73.43580000
C      -47.41480000     -34.53030000     -72.81550000
C      -47.06110000     -33.73620000     -71.68400000
C      -47.82040000     -32.64220000     -71.26160000
C      -49.05180000     -32.37130000     -72.02590000
C      -49.46700000     -33.29580000     -72.96130000
H      -48.84490000     -35.08830000     -74.11950000
H      -46.07730000     -33.97080000     -71.20530000
H      -49.62660000     -31.54540000     -71.65280000
H      -50.41890000     -33.18760000     -73.50540000
C      -47.53280000     -31.84570000     -70.02730000
H      -46.90370000     -32.35460000     -69.31780000
H      -48.42970000     -31.46920000     -69.48750000
C      -46.46710000     -35.57550000     -73.28840000
H      -46.07690000     -36.12690000     -72.38840000
H      -46.93960000     -36.41900000     -73.79560000
S      -46.58090000     -30.29690000     -70.32160000
S      -45.16360000     -35.02760000     -74.47770000
C      -45.27150000     -30.64180000     -71.51910000
H      -45.61460000     -31.44260000     -72.14970000
H      -45.18070000     -29.80980000     -72.24880000
C      -44.59450000     -33.40720000     -73.84300000
H      -45.35460000     -33.01380000     -73.17980000
H      -44.33500000     -32.70780000     -74.63930000
C      -43.17920000     -33.42460000     -73.12650000
H      -42.48130000     -33.96520000     -73.74960000
H      -42.86610000     -32.38760000     -72.93020000
C      -43.89000000     -30.98060000     -71.04880000
H      -43.41200000     -30.06730000     -70.51280000
H      -43.21960000     -31.11300000     -71.83710000
C      -43.84170000     -32.10890000     -70.09590000
C      -44.03690000     -31.98740000     -68.74700000
C      -43.36730000     -33.42620000     -70.49360000
H      -44.35570000     -31.06130000     -68.30530000
C      -43.45120000     -34.32080000     -69.43050000
C      -43.26040000     -34.10170000     -71.80540000
C      -43.07520000     -35.49210000     -71.54450000
S      -43.86820000     -33.50950000     -67.93350000
S      -43.18880000     -35.98350000     -69.86070000
H      -42.95640000     -36.14710000     -72.35970000
