40
Properties=species:S:1:pos:R:3 #=T CELL(abcABC):=T 1.889726e+02=T 90.00000=T Traj:=T positionsangstrom=T Step:=T 0=T Bead:=T pbc="F F F"
C      -48.53590000     -34.16130000     -72.80590000
C      -47.34810000     -34.48290000     -72.03280000
C      -47.03110000     -33.54440000     -71.00600000
C      -47.80380000     -32.42360000     -70.64480000
C      -49.10780000     -32.31600000     -71.30130000
C      -49.40150000     -33.13770000     -72.34810000
H      -48.82800000     -34.86690000     -73.59340000
H      -46.11830000     -33.78180000     -70.41770000
H      -49.80560000     -31.53140000     -71.04710000
H      -50.34050000     -33.06840000     -72.93390000
C      -47.33710000     -31.53710000     -69.62060000
H      -46.57180000     -32.08460000     -69.09920000
H      -48.12220000     -31.05180000     -69.07920000
C      -46.53520000     -35.71780000     -72.29500000
H      -45.77690000     -35.83600000     -71.43580000
H      -47.17080000     -36.63680000     -72.20850000
S      -46.37570000     -29.99590000     -70.30710000
S      -45.79700000     -35.57570000     -73.99800000
C      -45.36040000     -30.55620000     -71.76350000
H      -45.82900000     -31.40010000     -72.29070000
H      -45.31880000     -29.70190000     -72.40530000
C      -45.28290000     -33.85900000     -74.18010000
H      -45.99570000     -33.24220000     -73.60050000
H      -45.34590000     -33.60150000     -75.26230000
C      -43.84200000     -33.58010000     -73.66480000
H      -43.13200000     -34.02040000     -74.36200000
H      -43.57510000     -32.49030000     -73.71350000
C      -43.97150000     -30.87320000     -71.36590000
H      -43.38440000     -30.04200000     -70.85220000
H      -43.39750000     -31.12900000     -72.27020000
C      -43.76420000     -32.11710000     -70.48390000
C      -43.57400000     -31.95330000     -69.10260000
C      -43.58050000     -33.45850000     -70.92830000
H      -43.36940000     -31.01150000     -68.56890000
C      -43.27640000     -34.32110000     -69.87980000
C      -43.48390000     -34.15080000     -72.26920000
C      -43.18100000     -35.45390000     -72.14800000
S      -43.29900000     -33.50330000     -68.36440000
S      -42.87950000     -35.94800000     -70.45620000
H      -42.90100000     -36.21080000     -72.95840000
