40
Properties=species:S:1:pos:R:3 #=T CELL(abcABC):=T 1.889726e+02=T 90.00000=T Traj:=T positionsangstrom=T Step:=T 0=T Bead:=T pbc="F F F"
C      -45.54870000     -37.53200000     -70.55690000
C      -46.54530000     -36.71530000     -71.09060000
C      -46.32990000     -36.04760000     -72.33420000
C      -45.17460000     -36.26860000     -73.08670000
C      -44.14210000     -36.99970000     -72.50430000
C      -44.32320000     -37.59350000     -71.20910000
H      -45.49180000     -37.90690000     -69.52920000
H      -47.07210000     -35.44770000     -72.76420000
H      -43.18560000     -37.18140000     -73.13390000
H      -43.53140000     -38.18820000     -70.79700000
C      -44.99510000     -35.74690000     -74.45930000
H      -45.87120000     -35.17590000     -74.83950000
H      -44.68270000     -36.53250000     -75.08670000
C      -47.90130000     -36.52490000     -70.40710000
H      -48.60610000     -36.69300000     -71.26830000
H      -48.01380000     -37.31570000     -69.61540000
S      -43.61220000     -34.52930000     -74.57010000
S      -48.00880000     -34.82660000     -69.75650000
C      -44.39790000     -33.12120000     -73.56990000
H      -44.63920000     -32.33870000     -74.28090000
H      -45.26010000     -33.63030000     -73.15090000
C      -46.35220000     -34.46440000     -69.02160000
H      -45.88720000     -35.42040000     -68.85300000
H      -46.55080000     -33.97600000     -68.09890000
C      -45.51070000     -33.63230000     -69.99240000
H      -44.53970000     -33.90560000     -69.66940000
H      -45.62870000     -34.05260000     -71.02170000
C      -43.45580000     -32.65880000     -72.47710000
H      -42.44550000     -32.58890000     -72.80290000
H      -43.25890000     -33.50050000     -71.78790000
C      -43.87750000     -31.48120000     -71.73440000
C      -43.39140000     -30.24560000     -72.18320000
C      -44.83570000     -31.26930000     -70.62360000
H      -42.65290000     -30.11760000     -72.94260000
C      -44.99500000     -29.91710000     -70.31270000
C      -45.61920000     -32.17850000     -69.87570000
C      -46.48110000     -31.47940000     -68.99350000
S      -44.04610000     -28.79590000     -71.34360000
S      -46.21050000     -29.72040000     -68.98800000
H      -47.25600000     -31.80380000     -68.32190000
