40
Properties=species:S:1:pos:R:3 #=T CELL(abcABC):=T 1.889726e+02=T 90.00000=T Traj:=T positionsangstrom=T Step:=T 0=T Bead:=T pbc="F F F"
C      -45.23070000     -37.28530000     -70.09350000
C      -46.17550000     -36.68540000     -70.90690000
C      -45.75250000     -36.19670000     -72.14670000
C      -44.41220000     -36.30610000     -72.59700000
C      -43.50540000     -37.03570000     -71.84650000
C      -43.95790000     -37.49220000     -70.58430000
H      -45.46940000     -37.72100000     -69.11930000
H      -46.45670000     -35.56540000     -72.67860000
H      -42.45450000     -37.09430000     -72.05330000
H      -43.33810000     -38.05400000     -69.85380000
C      -44.01960000     -35.66870000     -73.89290000
H      -44.70880000     -35.03100000     -74.34500000
H      -43.78180000     -36.47570000     -74.60490000
C      -47.54970000     -36.45590000     -70.39080000
H      -48.35480000     -36.39600000     -71.16390000
H      -47.86860000     -37.15690000     -69.54420000
S      -42.32090000     -34.66020000     -73.84020000
S      -47.84030000     -34.65360000     -69.57970000
C      -42.97420000     -32.94540000     -73.45670000
H      -42.04490000     -32.38210000     -73.48010000
H      -43.64300000     -32.64010000     -74.32240000
C      -46.36600000     -34.28080000     -68.52800000
H      -45.80160000     -35.14930000     -68.27210000
H      -46.83370000     -33.76840000     -67.64490000
C      -45.39640000     -33.30840000     -69.23610000
H      -44.58910000     -32.94640000     -68.62040000
H      -44.79740000     -33.88710000     -70.03360000
C      -43.68520000     -32.86210000     -72.16020000
H      -43.00390000     -33.06330000     -71.30840000
H      -44.51570000     -33.54250000     -72.22480000
C      -44.33110000     -31.49590000     -71.95520000
C      -44.17380000     -30.41590000     -72.78320000
C      -45.40490000     -31.33160000     -71.01450000
H      -43.46990000     -30.30330000     -73.56750000
C      -46.04390000     -30.08850000     -71.12080000
C      -45.99100000     -32.03550000     -69.88040000
C      -47.01750000     -31.36700000     -69.26090000
S      -45.32160000     -29.10290000     -72.45400000
S      -47.29040000     -29.77620000     -69.96130000
H      -47.45650000     -31.77480000     -68.39640000
