40
Properties=species:S:1:pos:R:3 #=T CELL(abcABC):=T 1.889726e+02=T 90.00000=T Traj:=T positionsangstrom=T Step:=T 0=T Bead:=T pbc="F F F"
C      -45.13500000     -37.51730000     -70.23980000
C      -46.15740000     -36.72100000     -70.80440000
C      -45.97370000     -36.08530000     -72.03390000
C      -44.73420000     -36.24640000     -72.67770000
C      -43.72670000     -37.05310000     -72.09700000
C      -43.91980000     -37.68570000     -70.88160000
H      -45.50990000     -38.04170000     -69.32830000
H      -46.65420000     -35.47820000     -72.60570000
H      -42.80390000     -37.17070000     -72.66210000
H      -43.07330000     -38.22550000     -70.42050000
C      -44.50980000     -35.69920000     -74.07920000
H      -45.23680000     -34.96170000     -74.35660000
H      -44.45460000     -36.50270000     -74.85720000
C      -47.47900000     -36.54980000     -70.04320000
H      -48.34790000     -36.95910000     -70.67010000
H      -47.36260000     -37.12520000     -69.12270000
S      -42.97690000     -34.72280000     -74.24280000
S      -47.79860000     -34.74980000     -69.68280000
C      -43.54950000     -33.00560000     -73.67020000
H      -43.02290000     -32.23710000     -74.27960000
H      -44.59130000     -32.93810000     -73.89480000
C      -46.32940000     -34.26810000     -68.68010000
H      -45.88950000     -35.21540000     -68.32580000
H      -46.67340000     -33.72110000     -67.82710000
C      -45.36390000     -33.51950000     -69.51850000
H      -44.44720000     -33.54090000     -68.90000000
H      -45.06750000     -34.11340000     -70.40150000
C      -43.40990000     -32.71640000     -72.18480000
H      -42.38590000     -32.52690000     -72.01820000
H      -43.83110000     -33.46200000     -71.55470000
C      -44.13880000     -31.39580000     -71.91430000
C      -43.97090000     -30.24250000     -72.62770000
C      -45.18090000     -31.25550000     -70.91400000
H      -43.32050000     -30.15260000     -73.49860000
C      -45.76150000     -29.96150000     -70.89540000
C      -45.75190000     -32.08230000     -69.87750000
C      -46.67970000     -31.38010000     -69.10360000
S      -44.99280000     -28.91400000     -72.07580000
S      -47.04220000     -29.72310000     -69.63360000
H      -47.29630000     -31.69610000     -68.25470000
