40
Properties=species:S:1:pos:R:3 #=T CELL(abcABC):=T 1.889726e+02=T 90.00000=T Traj:=T positionsangstrom=T Step:=T 0=T Bead:=T pbc="F F F"
C      -43.63330000     -35.03610000     -73.30540000
C      -44.04920000     -33.92920000     -74.01460000
C      -45.31850000     -33.84250000     -74.48440000
C      -46.24760000     -34.95710000     -74.29400000
C      -45.77850000     -36.10140000     -73.58690000
C      -44.42530000     -36.11260000     -73.16180000
H      -42.63800000     -35.04850000     -72.89000000
H      -45.72520000     -32.92440000     -74.95100000
H      -46.46680000     -36.98260000     -73.53910000
H      -43.99390000     -36.97320000     -72.62490000
C      -47.71630000     -34.71580000     -74.57820000
H      -48.31670000     -35.57190000     -74.21090000
H      -47.99080000     -34.49210000     -75.60800000
C      -43.17050000     -32.68410000     -74.19060000
H      -42.21070000     -32.74010000     -73.70010000
H      -43.03150000     -32.47120000     -75.27870000
S      -48.28110000     -33.21330000     -73.52300000
S      -43.96530000     -31.21970000     -73.48530000
C      -47.90140000     -33.78780000     -71.82870000
H      -48.81660000     -33.96950000     -71.24840000
H      -47.31910000     -34.72310000     -72.00330000
C      -43.30680000     -31.21070000     -71.69310000
H      -42.36400000     -30.57260000     -71.63140000
H      -42.99030000     -32.26100000     -71.47890000
C      -44.39370000     -30.91290000     -70.60960000
H      -44.22550000     -29.86940000     -70.29010000
H      -45.36540000     -30.95330000     -70.96240000
C      -47.08720000     -32.81560000     -71.06750000
H      -47.66830000     -31.88110000     -70.88120000
H      -46.39170000     -32.50410000     -71.77980000
C      -46.53300000     -33.27670000     -69.72870000
C      -47.03280000     -34.29960000     -68.99270000
C      -45.25220000     -32.87430000     -69.16660000
H      -47.88730000     -34.89070000     -69.22480000
C      -44.83750000     -33.70370000     -68.05360000
C      -44.24540000     -31.85370000     -69.48390000
C      -43.21320000     -31.86140000     -68.51660000
S      -46.11270000     -34.81660000     -67.61120000
S      -43.38340000     -33.13870000     -67.26680000
H      -42.30160000     -31.25510000     -68.48120000
