40
Properties=species:S:1:pos:R:3 #=T CELL(abcABC):=T 1.889726e+02=T 90.00000=T Traj:=T positionsangstrom=T Step:=T 0=T Bead:=T pbc="F F F"
C      -46.09990000     -29.78500000     -69.47150000
C      -46.55780000     -31.06940000     -69.02130000
C      -47.56100000     -31.75570000     -69.74600000
C      -48.02660000     -31.15230000     -70.96400000
C      -47.50860000     -29.99490000     -71.42290000
C      -46.59050000     -29.27320000     -70.67880000
H      -45.35950000     -29.27590000     -68.86110000
H      -47.84650000     -32.70850000     -69.43130000
H      -47.86850000     -29.53000000     -72.35510000
H      -46.24060000     -28.31200000     -70.96230000
C      -49.00290000     -31.89170000     -71.82310000
H      -49.87160000     -31.18880000     -72.03720000
H      -49.39450000     -32.82190000     -71.33200000
C      -46.04850000     -31.74330000     -67.74790000
H      -45.01360000     -31.44950000     -67.49970000
H      -46.59200000     -31.37770000     -66.84380000
S      -48.33940000     -32.22490000     -73.48330000
S      -46.12370000     -33.66030000     -67.67540000
C      -47.07400000     -33.55190000     -73.12260000
H      -47.57190000     -34.19790000     -72.35020000
H      -47.03400000     -34.06940000     -74.07770000
C      -45.32360000     -34.44700000     -69.11010000
H      -46.08920000     -34.37450000     -69.84710000
H      -45.17520000     -35.47840000     -68.90930000
C      -43.93710000     -33.91110000     -69.59100000
H      -44.13910000     -32.85330000     -69.94910000
H      -43.28170000     -33.85570000     -68.71930000
C      -45.72480000     -33.12610000     -72.59890000
H      -45.74080000     -33.01470000     -71.47910000
H      -45.63110000     -32.07500000     -72.85860000
C      -44.57890000     -34.06010000     -72.97400000
C      -44.33510000     -34.37790000     -74.23340000
C      -43.64360000     -34.74140000     -72.08430000
H      -44.77950000     -33.84170000     -75.11580000
C      -42.73260000     -35.49270000     -72.75710000
C      -43.27260000     -34.73860000     -70.65440000
C      -42.22940000     -35.57040000     -70.36520000
S      -42.94210000     -35.52000000     -74.49290000
S      -41.62290000     -36.40380000     -71.78110000
H      -41.67240000     -35.60460000     -69.35060000
