40
Properties=species:S:1:pos:R:3 #=T CELL(abcABC):=T 1.889726e+02=T 90.00000=T Traj:=T positionsangstrom=T Step:=T 0=T Bead:=T pbc="F F F"
C      -49.08640000     -34.28200000     -71.56970000
C      -47.76720000     -34.66220000     -71.63760000
C      -46.84570000     -34.13350000     -70.72120000
C      -47.27760000     -33.13030000     -69.79390000
C      -48.68130000     -32.77520000     -69.75780000
C      -49.54710000     -33.30980000     -70.68490000
H      -49.75290000     -34.73040000     -72.33560000
H      -45.87090000     -34.22310000     -70.73330000
H      -48.92520000     -32.04490000     -69.00700000
H      -50.52930000     -32.96440000     -70.69360000
C      -46.28030000     -32.41820000     -68.95500000
H      -45.32160000     -32.95050000     -68.88590000
H      -46.60700000     -32.32290000     -67.89610000
C      -47.12530000     -35.61290000     -72.58630000
H      -46.18230000     -35.96960000     -72.16140000
H      -47.76030000     -36.47330000     -72.74350000
S      -46.09150000     -30.51790000     -69.43450000
S      -46.61910000     -34.85270000     -74.32160000
C      -45.68850000     -30.68890000     -71.19630000
H      -46.27890000     -31.48530000     -71.59480000
H      -46.10060000     -29.76260000     -71.65890000
C      -45.88780000     -33.12720000     -74.16220000
H      -46.40500000     -32.59780000     -73.41340000
H      -46.11110000     -32.65770000     -75.09830000
C      -44.40310000     -33.21310000     -73.99970000
H      -44.03290000     -33.69810000     -74.85030000
H      -44.06310000     -32.19070000     -74.07830000
C      -44.20460000     -30.76360000     -71.49460000
H      -43.72960000     -29.97260000     -70.96060000
H      -44.05010000     -30.74220000     -72.57280000
C      -43.55100000     -31.97270000     -70.98350000
C      -42.97820000     -31.92980000     -69.72700000
C      -43.56410000     -33.29440000     -71.53940000
H      -42.95100000     -31.10450000     -69.04360000
C      -43.03240000     -34.23190000     -70.62100000
C      -43.85460000     -33.89250000     -72.76410000
C      -43.49580000     -35.16980000     -72.86950000
S      -42.47650000     -33.48920000     -69.18670000
S      -42.74030000     -35.80230000     -71.36820000
H      -43.62320000     -35.81290000     -73.75760000
