40
Properties=species:S:1:pos:R:3 #=T CELL(abcABC):=T 1.889726e+02=T 90.00000=T Traj:=T positionsangstrom=T Step:=T 0=T Bead:=T pbc="F F F"
C      -44.93610000     -37.04780000     -70.05090000
C      -45.65120000     -36.33580000     -71.01950000
C      -45.05890000     -35.89160000     -72.19010000
C      -43.70180000     -36.30440000     -72.37960000
C      -43.00220000     -36.98850000     -71.42640000
C      -43.58960000     -37.29660000     -70.19000000
H      -45.50830000     -37.33940000     -69.21040000
H      -45.66760000     -35.37280000     -72.92940000
H      -41.90450000     -37.10400000     -71.47640000
H      -43.01710000     -37.69710000     -69.39380000
C      -42.93820000     -35.84140000     -73.57580000
H      -43.53650000     -35.64720000     -74.47570000
H      -42.30420000     -36.68210000     -73.79220000
C      -47.23070000     -36.15000000     -70.86370000
H      -47.53210000     -35.90540000     -71.94260000
H      -47.56440000     -37.19560000     -70.62080000
S      -41.82350000     -34.41790000     -73.30890000
S      -47.83630000     -34.88530000     -69.73450000
C      -42.94220000     -32.95540000     -73.37260000
H      -42.30270000     -32.17290000     -73.59930000
H      -43.60670000     -33.07310000     -74.24750000
C      -46.45980000     -34.30190000     -68.55010000
H      -45.87420000     -35.11320000     -68.21530000
H      -46.98650000     -33.87900000     -67.69720000
C      -45.51150000     -33.28580000     -69.29410000
H      -44.65040000     -33.08580000     -68.65060000
H      -45.11700000     -33.86410000     -70.09690000
C      -43.80020000     -32.76220000     -72.10580000
H      -43.14550000     -32.64170000     -71.24200000
H      -44.36920000     -33.66110000     -71.94710000
C      -44.79820000     -31.56680000     -72.19820000
C      -44.88070000     -30.59980000     -73.17820000
C      -45.73450000     -31.29480000     -71.03840000
H      -44.37190000     -30.59930000     -74.12820000
C      -46.53120000     -30.17900000     -71.30900000
C      -46.10970000     -31.94690000     -69.74760000
C      -47.18280000     -31.33030000     -69.13330000
S      -46.17860000     -29.38660000     -72.80860000
S      -47.76350000     -29.95300000     -70.04820000
H      -47.73830000     -31.64340000     -68.25780000
