40
Properties=species:S:1:pos:R:3 #=T CELL(abcABC):=T 1.889726e+02=T 90.00000=T Traj:=T positionsangstrom=T Step:=T 0=T Bead:=T pbc="F F F"
C      -49.00040000     -34.44790000     -71.76680000
C      -47.62330000     -34.66190000     -71.69420000
C      -46.93650000     -34.02530000     -70.70640000
C      -47.56650000     -33.15920000     -69.80920000
C      -48.95550000     -33.15900000     -69.68500000
C      -49.63950000     -33.84890000     -70.68520000
H      -49.59120000     -34.85050000     -72.62310000
H      -45.84560000     -34.04690000     -70.69590000
H      -49.51660000     -32.46100000     -69.06470000
H      -50.81100000     -33.68680000     -70.74250000
C      -46.65510000     -32.37550000     -68.89620000
H      -45.68900000     -32.88570000     -68.82370000
H      -47.05550000     -32.39670000     -67.89390000
C      -46.98850000     -35.51140000     -72.77420000
H      -46.01490000     -35.89690000     -72.42460000
H      -47.62040000     -36.40800000     -72.87640000
S      -46.16040000     -30.67530000     -69.32390000
S      -46.71340000     -34.75780000     -74.43730000
C      -45.91750000     -30.69700000     -71.15360000
H      -46.63580000     -31.42550000     -71.68670000
H      -46.30550000     -29.78990000     -71.57100000
C      -45.90360000     -33.19150000     -74.06380000
H      -46.26870000     -32.89780000     -73.08150000
H      -46.26280000     -32.58870000     -74.84890000
C      -44.36100000     -33.24200000     -73.98270000
H      -43.93970000     -33.87050000     -74.79800000
H      -44.01660000     -32.21200000     -74.06450000
C      -44.43400000     -30.79100000     -71.51240000
H      -43.99470000     -29.85450000     -71.19090000
H      -44.35430000     -30.64020000     -72.60740000
C      -43.61090000     -31.91400000     -70.99450000
C      -43.04820000     -31.79070000     -69.75530000
C      -43.39530000     -33.23300000     -71.54490000
H      -42.90370000     -30.88930000     -69.11590000
C      -42.72310000     -34.05170000     -70.72080000
C      -43.70510000     -33.92430000     -72.76460000
C      -43.30530000     -35.23120000     -72.77340000
S      -42.35800000     -33.30440000     -69.17150000
S      -42.44540000     -35.64540000     -71.29060000
H      -43.48900000     -36.06470000     -73.55030000
