40
Properties=species:S:1:pos:R:3 #=T CELL(abcABC):=T 1.889726e+02=T 90.00000=T Traj:=T positionsangstrom=T Step:=T 0=T Bead:=T pbc="F F F"
C      -48.44970000     -35.31980000     -71.83080000
C      -47.08010000     -35.06320000     -71.62700000
C      -46.64200000     -34.18730000     -70.59950000
C      -47.51860000     -33.47220000     -69.82670000
C      -48.84660000     -33.50660000     -70.25320000
C      -49.35340000     -34.42410000     -71.25930000
H      -48.87020000     -36.03950000     -72.54490000
H      -45.59700000     -34.29510000     -70.36910000
H      -49.60290000     -32.92910000     -69.75630000
H      -50.37570000     -34.47880000     -71.42750000
C      -47.10430000     -32.38880000     -68.69790000
H      -46.16830000     -32.72420000     -68.23630000
H      -47.90050000     -32.44900000     -67.96890000
C      -46.05420000     -35.79110000     -72.48150000
H      -45.05930000     -35.67440000     -72.08880000
H      -46.25770000     -36.87740000     -72.54730000
S      -46.93160000     -30.59800000     -69.35350000
S      -46.08250000     -35.14320000     -74.21270000
C      -46.39650000     -30.73200000     -71.08810000
H      -46.80000000     -31.63430000     -71.53910000
H      -46.91020000     -29.89070000     -71.64430000
C      -45.95980000     -33.26960000     -73.93660000
H      -46.46280000     -32.94460000     -73.00360000
H      -46.53380000     -32.70200000     -74.72250000
C      -44.42950000     -32.71540000     -73.98320000
H      -43.97250000     -32.99670000     -74.96030000
H      -44.54160000     -31.66590000     -73.81180000
C      -44.90430000     -30.62940000     -71.34140000
H      -44.46800000     -29.64500000     -71.10290000
H      -44.80160000     -30.64670000     -72.41780000
C      -44.10930000     -31.78120000     -70.75970000
C      -43.67840000     -31.85550000     -69.46400000
C      -43.59460000     -32.93920000     -71.53950000
H      -44.02140000     -31.21130000     -68.64830000
C      -42.92830000     -33.90750000     -70.71910000
C      -43.54860000     -33.34440000     -72.89380000
C      -42.85560000     -34.50650000     -73.09000000
S      -42.71680000     -33.35060000     -69.01340000
S      -42.03930000     -35.04600000     -71.62810000
H      -42.77850000     -34.97000000     -74.07990000
