40
Properties=species:S:1:pos:R:3 #=T CELL(abcABC):=T 1.889726e+02=T 90.00000=T Traj:=T positionsangstrom=T Step:=T 0=T Bead:=T pbc="F F F"
C      -48.39620000     -35.42940000     -71.86520000
C      -47.08660000     -35.08970000     -71.61240000
C      -46.76490000     -34.12440000     -70.66310000
C      -47.66220000     -33.40410000     -69.90500000
C      -49.02970000     -33.54180000     -70.33450000
C      -49.37540000     -34.61600000     -71.24010000
H      -48.58950000     -36.27280000     -72.44340000
H      -45.71900000     -33.76330000     -70.57850000
H      -49.90010000     -33.02930000     -69.95730000
H      -50.40840000     -34.89930000     -71.52160000
C      -47.08770000     -32.52000000     -68.87780000
H      -46.06890000     -32.81280000     -68.60380000
H      -47.72170000     -32.52550000     -67.99850000
C      -46.10170000     -35.93080000     -72.33500000
H      -45.15630000     -35.72410000     -71.85000000
H      -46.33820000     -36.97730000     -72.46760000
S      -47.06020000     -30.69400000     -69.24210000
S      -45.99860000     -35.25340000     -74.10220000
C      -46.39760000     -30.53450000     -71.00190000
H      -46.70870000     -31.50380000     -71.40600000
H      -46.81520000     -29.70100000     -71.44790000
C      -46.02140000     -33.38590000     -73.89190000
H      -46.53930000     -33.11250000     -72.95370000
H      -46.68230000     -33.02500000     -74.67620000
C      -44.58590000     -32.72660000     -74.00040000
H      -44.13170000     -32.91440000     -74.95570000
H      -44.79210000     -31.62390000     -74.03740000
C      -44.80950000     -30.39840000     -71.04190000
H      -44.59720000     -29.60890000     -70.31410000
H      -44.50370000     -30.21840000     -72.08650000
C      -44.02760000     -31.69320000     -70.70720000
C      -43.61410000     -31.90510000     -69.39780000
C      -43.43110000     -32.71920000     -71.62600000
H      -43.81700000     -31.30700000     -68.53430000
C      -42.59500000     -33.61560000     -70.88670000
C      -43.59170000     -33.24250000     -72.94550000
C      -42.95320000     -34.44560000     -73.15350000
S      -42.60850000     -33.34390000     -69.13100000
S      -42.06100000     -35.02670000     -71.73060000
H      -43.03570000     -35.11110000     -73.96370000
