40
Properties=species:S:1:pos:R:3 #=T CELL(abcABC):=T 1.889726e+02=T 90.00000=T Traj:=T positionsangstrom=T Step:=T 0=T Bead:=T pbc="F F F"
C      -48.46690000     -35.21400000     -71.43760000
C      -47.09530000     -35.11990000     -71.63560000
C      -46.27630000     -34.54400000     -70.67910000
C      -46.83650000     -33.98210000     -69.49000000
C      -48.22670000     -33.97210000     -69.34800000
C      -48.99220000     -34.56750000     -70.31580000
H      -49.10240000     -35.55240000     -72.26340000
H      -45.19750000     -34.64010000     -70.80820000
H      -48.70680000     -33.34650000     -68.59680000
H      -50.14850000     -34.60420000     -70.15640000
C      -46.04430000     -33.17380000     -68.56870000
H      -44.96030000     -33.30350000     -68.79710000
H      -46.28150000     -33.37720000     -67.54580000
C      -46.39630000     -35.74880000     -72.83260000
H      -45.31270000     -35.89950000     -72.65470000
H      -46.78560000     -36.75120000     -73.13740000
S      -46.65090000     -31.41920000     -68.76370000
S      -46.76980000     -34.83920000     -74.46320000
C      -46.64680000     -31.03070000     -70.61330000
H      -47.04930000     -31.87960000     -71.07100000
H      -47.36300000     -30.18110000     -70.73410000
C      -46.40690000     -33.11100000     -74.06510000
H      -46.77590000     -32.81410000     -73.08210000
H      -46.96460000     -32.48240000     -74.77920000
C      -44.92960000     -32.64900000     -74.11480000
H      -44.45250000     -32.85940000     -75.04780000
H      -44.84970000     -31.52240000     -73.95370000
C      -45.27840000     -30.55030000     -71.14100000
H      -45.03910000     -29.61240000     -70.70710000
H      -45.48350000     -30.41590000     -72.17950000
C      -44.13660000     -31.52650000     -70.93940000
C      -43.53180000     -31.56480000     -69.71770000
C      -43.76770000     -32.71240000     -71.72850000
H      -43.66560000     -30.85500000     -68.86090000
C      -42.80830000     -33.48770000     -71.08320000
C      -43.98040000     -33.23540000     -73.06800000
C      -43.14560000     -34.23450000     -73.41050000
S      -42.37380000     -32.90670000     -69.49630000
S      -42.15280000     -34.71700000     -72.00300000
H      -43.14910000     -34.77700000     -74.32600000
