40
Properties=species:S:1:pos:R:3 #=T CELL(abcABC):=T 1.889726e+02=T 90.00000=T Traj:=T positionsangstrom=T Step:=T 0=T Bead:=T pbc="F F F"
C      -48.61050000     -35.44650000     -71.81640000
C      -47.23690000     -35.31830000     -71.65360000
C      -46.69040000     -34.39520000     -70.69700000
C      -47.63210000     -33.70240000     -69.89310000
C      -48.99800000     -33.86230000     -70.04940000
C      -49.49380000     -34.64390000     -71.05760000
H      -48.99260000     -36.11030000     -72.55890000
H      -45.62390000     -34.30080000     -70.46870000
H      -49.63820000     -33.36120000     -69.39790000
H      -50.52290000     -34.72030000     -71.34540000
C      -47.03210000     -32.75510000     -68.93760000
H      -45.96250000     -32.91590000     -69.04100000
H      -47.33020000     -32.82510000     -67.91690000
C      -46.33850000     -35.93760000     -72.72480000
H      -45.29090000     -36.15040000     -72.38080000
H      -46.83310000     -36.85890000     -73.00390000
S      -47.29600000     -30.96590000     -69.35690000
S      -46.36540000     -35.00220000     -74.29350000
C      -46.37500000     -31.01510000     -71.01400000
H      -46.33300000     -32.09870000     -71.33110000
H      -47.00250000     -30.46720000     -71.70310000
C      -46.17660000     -33.20650000     -73.79510000
H      -46.68880000     -33.09190000     -72.83970000
H      -46.76060000     -32.70500000     -74.61070000
C      -44.70730000     -32.72440000     -73.74390000
H      -44.28730000     -32.90490000     -74.75750000
H      -44.68020000     -31.61440000     -73.58060000
C      -44.91910000     -30.60900000     -70.94260000
H      -44.69630000     -29.76320000     -70.26450000
H      -44.71820000     -30.10380000     -71.91540000
C      -43.91900000     -31.69310000     -70.60390000
C      -43.10250000     -31.48300000     -69.48440000
C      -43.48250000     -32.82570000     -71.36970000
H      -43.20090000     -30.65230000     -68.85090000
C      -42.47480000     -33.60090000     -70.71890000
C      -43.81810000     -33.30290000     -72.70670000
C      -43.09130000     -34.43920000     -73.01760000
S      -41.94530000     -32.80800000     -69.23870000
S      -41.90060000     -34.88200000     -71.78260000
H      -43.23970000     -34.95970000     -74.02290000
