40
Properties=species:S:1:pos:R:3 #=T CELL(abcABC):=T 1.889726e+02=T 90.00000=T Traj:=T positionsangstrom=T Step:=T 0=T Bead:=T pbc="F F F"
C      -48.52610000     -35.42500000     -71.54230000
C      -47.16120000     -35.16620000     -71.65340000
C      -46.53980000     -34.36730000     -70.66200000
C      -47.29380000     -33.76090000     -69.64920000
C      -48.72710000     -33.97680000     -69.57380000
C      -49.30310000     -34.83320000     -70.50190000
H      -49.02410000     -35.95190000     -72.42380000
H      -45.48380000     -34.20300000     -70.65240000
H      -49.40160000     -33.42380000     -68.93550000
H      -50.39940000     -34.90840000     -70.52290000
C      -46.51170000     -33.02060000     -68.59630000
H      -45.52380000     -33.48590000     -68.66760000
H      -46.95810000     -33.09810000     -67.62460000
C      -46.33470000     -35.75900000     -72.80970000
H      -45.35490000     -35.96640000     -72.49610000
H      -46.76600000     -36.72010000     -73.03050000
S      -46.45080000     -31.23010000     -68.94840000
S      -46.31410000     -34.90910000     -74.43490000
C      -46.56900000     -30.88090000     -70.74210000
H      -46.89000000     -31.74290000     -71.35650000
H      -47.24490000     -29.99740000     -70.97800000
C      -46.19800000     -33.07710000     -74.03230000
H      -46.72580000     -32.99590000     -73.05110000
H      -46.74840000     -32.51450000     -74.79770000
C      -44.72290000     -32.60240000     -74.01690000
H      -44.36030000     -32.80550000     -75.01600000
H      -44.69570000     -31.54410000     -73.85240000
C      -45.14690000     -30.48070000     -71.23690000
H      -44.87660000     -29.56160000     -70.61260000
H      -45.22240000     -30.15570000     -72.36440000
C      -44.08010000     -31.52630000     -70.98980000
C      -43.47690000     -31.44770000     -69.78830000
C      -43.61210000     -32.70200000     -71.69070000
H      -43.69460000     -30.61660000     -69.04200000
C      -42.79060000     -33.56160000     -70.97150000
C      -43.89580000     -33.29400000     -72.94680000
C      -43.24730000     -34.45390000     -73.19550000
S      -42.40700000     -32.79320000     -69.39290000
S      -42.29700000     -34.99060000     -71.77040000
H      -43.18950000     -34.93650000     -74.09970000
