40
Properties=species:S:1:pos:R:3 #=T CELL(abcABC):=T 1.889726e+02=T 90.00000=T Traj:=T positionsangstrom=T Step:=T 0=T Bead:=T pbc="F F F"
C      -48.61360000     -35.52260000     -71.76280000
C      -47.21650000     -35.27580000     -71.67780000
C      -46.69280000     -34.36330000     -70.78210000
C      -47.50250000     -33.72560000     -69.91830000
C      -48.89510000     -34.06620000     -69.84280000
C      -49.40840000     -34.92820000     -70.79270000
H      -49.10480000     -36.21870000     -72.46030000
H      -45.64560000     -34.28490000     -70.68440000
H      -49.54980000     -33.69530000     -69.06920000
H      -50.44900000     -35.21740000     -70.68040000
C      -46.94130000     -32.93280000     -68.81300000
H      -45.98450000     -33.25150000     -68.46220000
H      -47.60570000     -32.97930000     -67.89670000
C      -46.30340000     -35.85670000     -72.71230000
H      -45.25180000     -35.86220000     -72.32150000
H      -46.53600000     -36.91920000     -72.95340000
S      -46.70470000     -31.03450000     -68.97620000
S      -46.45970000     -34.98680000     -74.38820000
C      -46.27850000     -30.96190000     -70.80200000
H      -46.58080000     -31.94330000     -71.15220000
H      -47.08010000     -30.31660000     -71.20790000
C      -46.20590000     -33.20910000     -73.96360000
H      -46.59520000     -32.98700000     -72.94270000
H      -46.63650000     -32.60410000     -74.72950000
C      -44.72150000     -32.66530000     -74.00130000
H      -44.20450000     -32.98140000     -74.95070000
H      -44.81900000     -31.56040000     -74.08670000
C      -44.87610000     -30.45430000     -71.22920000
H      -44.65170000     -29.52810000     -70.72310000
H      -44.86950000     -30.44710000     -72.28160000
C      -43.78790000     -31.41430000     -70.76950000
C      -43.12660000     -31.41450000     -69.59170000
C      -43.52530000     -32.64210000     -71.53090000
H      -43.14990000     -30.67320000     -68.73090000
C      -42.69990000     -33.51660000     -70.83220000
C      -43.80710000     -33.14800000     -72.87010000
C      -43.21600000     -34.35200000     -73.11110000
S      -42.19610000     -32.91290000     -69.31560000
S      -42.24120000     -34.89080000     -71.72130000
H      -43.42200000     -34.92780000     -73.99980000
