40
Properties=species:S:1:pos:R:3 #=T CELL(abcABC):=T 1.889726e+02=T 90.00000=T Traj:=T positionsangstrom=T Step:=T 0=T Bead:=T pbc="F F F"
C      -43.40210000     -35.44150000     -68.77330000
C      -44.15390000     -35.98800000     -69.86570000
C      -43.54250000     -36.01000000     -71.13740000
C      -42.31950000     -35.37950000     -71.30370000
C      -41.57720000     -34.94050000     -70.20060000
C      -42.15310000     -34.94480000     -68.97430000
H      -43.83490000     -35.55230000     -67.78130000
H      -44.09110000     -36.42860000     -72.06420000
H      -40.67530000     -34.47520000     -70.38720000
H      -41.56870000     -34.54730000     -68.09770000
C      -41.77370000     -35.21870000     -72.73150000
H      -42.38140000     -35.83120000     -73.49210000
H      -40.72570000     -35.46870000     -72.80720000
C      -45.52640000     -36.53580000     -69.55690000
H      -45.82210000     -37.43160000     -70.13770000
H      -45.60390000     -36.79780000     -68.47330000
S      -41.68780000     -33.42560000     -73.27630000
S      -46.95920000     -35.28220000     -69.81610000
C      -43.38410000     -32.90410000     -73.53780000
H      -43.41770000     -31.89270000     -73.90140000
H      -43.77410000     -33.61630000     -74.37250000
C      -46.60610000     -33.90330000     -68.57890000
H      -45.85700000     -34.28780000     -67.90340000
H      -47.56990000     -33.61460000     -68.07930000
C      -45.97270000     -32.59920000     -69.19980000
H      -45.70980000     -31.88230000     -68.37010000
H      -45.03490000     -32.82020000     -69.56360000
C      -44.40480000     -32.92880000     -72.29120000
H      -43.89360000     -32.51980000     -71.37240000
H      -44.51940000     -33.93310000     -71.87170000
C      -45.67120000     -32.26800000     -72.57720000
C      -46.07610000     -32.04740000     -73.89510000
C      -46.70990000     -31.87900000     -71.63240000
H      -45.61900000     -32.24440000     -74.87740000
C      -47.69510000     -31.14060000     -72.24270000
C      -46.90660000     -31.96320000     -70.16250000
C      -48.09430000     -31.36180000     -69.75760000
S      -47.71520000     -31.24530000     -73.95050000
S      -48.97940000     -30.66900000     -71.10900000
H      -48.49100000     -31.47080000     -68.75620000
