40
Properties=species:S:1:pos:R:3 #=T CELL(abcABC):=T 1.889726e+02=T 90.00000=T Traj:=T positionsangstrom=T Step:=T 0=T Bead:=T pbc="F F F"
C      -48.63870000     -35.28340000     -71.84970000
C      -47.24390000     -35.18320000     -71.70120000
C      -46.72840000     -34.47940000     -70.59200000
C      -47.67280000     -33.73710000     -69.76070000
C      -49.04160000     -33.87320000     -69.89020000
C      -49.52090000     -34.56720000     -71.02450000
H      -49.02370000     -35.87370000     -72.69550000
H      -45.65100000     -34.33830000     -70.53610000
H      -49.64200000     -33.21780000     -69.27620000
H      -50.59120000     -34.61280000     -71.19310000
C      -47.04330000     -32.70200000     -68.80500000
H      -46.00800000     -32.86280000     -68.50590000
H      -47.61790000     -32.54860000     -67.84920000
C      -46.34960000     -35.95330000     -72.55010000
H      -45.34910000     -36.01270000     -72.22760000
H      -46.78930000     -36.98380000     -72.59480000
S      -47.38390000     -30.99800000     -69.53540000
S      -46.20230000     -35.26490000     -74.29620000
C      -46.40170000     -30.90190000     -71.01520000
H      -46.54300000     -31.81210000     -71.54360000
H      -46.76060000     -30.16520000     -71.76240000
C      -46.06830000     -33.40130000     -73.94540000
H      -46.59580000     -33.35860000     -72.99540000
H      -46.59770000     -32.76320000     -74.65910000
C      -44.69190000     -32.67520000     -73.86030000
H      -44.18200000     -32.72670000     -74.83230000
H      -44.84570000     -31.59150000     -73.84740000
C      -44.92870000     -30.51200000     -70.84030000
H      -44.85960000     -29.76750000     -70.04930000
H      -44.62620000     -30.14540000     -71.83000000
C      -43.88570000     -31.61320000     -70.60550000
C      -43.19950000     -31.62530000     -69.40370000
C      -43.45810000     -32.68090000     -71.45180000
H      -43.36810000     -30.93250000     -68.61700000
C      -42.45830000     -33.40610000     -70.85290000
C      -43.74930000     -33.18690000     -72.77890000
C      -42.96300000     -34.29180000     -73.04680000
S      -42.02640000     -32.95640000     -69.24730000
S      -41.90760000     -34.80580000     -71.71690000
H      -42.98960000     -34.79460000     -74.02810000
