40
Properties=species:S:1:pos:R:3 #=T CELL(abcABC):=T 1.889726e+02=T 90.00000=T Traj:=T positionsangstrom=T Step:=T 0=T Bead:=T pbc="F F F"
C      -48.05650000     -35.55880000     -71.50910000
C      -46.71580000     -35.29900000     -71.66150000
C      -45.94930000     -34.95110000     -70.56000000
C      -46.56790000     -34.64730000     -69.33110000
C      -47.92270000     -34.94840000     -69.14960000
C      -48.65000000     -35.34680000     -70.27990000
H      -48.69510000     -35.81380000     -72.35960000
H      -44.82970000     -34.81710000     -70.60370000
H      -48.46360000     -34.68000000     -68.25550000
H      -49.70770000     -35.46680000     -70.10760000
C      -45.80220000     -34.09380000     -68.21640000
H      -44.76500000     -34.10600000     -68.39040000
H      -45.98640000     -34.51480000     -67.23840000
C      -46.13350000     -35.27590000     -73.10020000
H      -45.11960000     -35.04570000     -73.06990000
H      -46.32720000     -36.23750000     -73.58360000
S      -46.18880000     -32.28180000     -67.98430000
S      -47.17100000     -34.11280000     -74.14080000
C      -46.60770000     -31.59890000     -69.66050000
H      -47.08670000     -32.35080000     -70.36550000
H      -47.39020000     -30.84620000     -69.41420000
C      -47.01410000     -32.47420000     -73.26820000
H      -47.18320000     -32.58730000     -72.18200000
H      -47.84750000     -31.94070000     -73.58890000
C      -45.75580000     -31.72140000     -73.66820000
H      -45.78570000     -31.54580000     -74.77020000
H      -45.80660000     -30.70280000     -73.24590000
C      -45.47750000     -30.92250000     -70.35350000
H      -45.13540000     -30.01670000     -69.71300000
H      -45.89150000     -30.35940000     -71.26790000
C      -44.30690000     -31.76770000     -70.65070000
C      -43.51890000     -32.22720000     -69.56700000
C      -44.00410000     -32.40410000     -71.90960000
H      -43.52670000     -31.88230000     -68.53250000
C      -42.81070000     -33.15370000     -71.83720000
C      -44.46280000     -32.38180000     -73.28240000
C      -43.64720000     -33.01430000     -74.17560000
S      -42.16220000     -33.24100000     -70.16950000
S      -42.19460000     -33.69730000     -73.39720000
H      -43.87490000     -33.19640000     -75.22220000
