40
Properties=species:S:1:pos:R:3 #=T CELL(abcABC):=T 1.889726e+02=T 90.00000=T Traj:=T positionsangstrom=T Step:=T 0=T Bead:=T pbc="F F F"
C      -48.15630000     -35.94510000     -71.38650000
C      -46.86850000     -35.38510000     -71.64750000
C      -46.20770000     -34.70860000     -70.64420000
C      -46.77270000     -34.36930000     -69.39800000
C      -48.04000000     -34.92030000     -69.17580000
C      -48.72130000     -35.71350000     -70.11190000
H      -48.70510000     -36.49120000     -72.11750000
H      -45.32120000     -34.15290000     -70.88250000
H      -48.59050000     -34.67790000     -68.29660000
H      -49.73860000     -36.00120000     -70.01040000
C      -45.99880000     -33.55880000     -68.37700000
H      -44.91370000     -33.51340000     -68.58480000
H      -46.13730000     -33.98760000     -67.39720000
C      -46.21590000     -35.50360000     -73.04830000
H      -45.14730000     -35.33040000     -73.02980000
H      -46.28790000     -36.57420000     -73.48540000
S      -46.62240000     -31.76230000     -68.33640000
S      -47.16380000     -34.37880000     -74.21790000
C      -46.44480000     -31.05180000     -70.07560000
H      -46.90470000     -31.77400000     -70.78700000
H      -47.15230000     -30.23260000     -70.11800000
C      -46.99030000     -32.75060000     -73.34690000
H      -47.31080000     -32.92480000     -72.28980000
H      -47.71730000     -32.12030000     -73.85600000
C      -45.65070000     -31.98760000     -73.58840000
H      -45.54940000     -31.82830000     -74.68260000
H      -45.72610000     -30.97020000     -73.19150000
C      -45.05380000     -30.56430000     -70.48980000
H      -44.75310000     -29.81010000     -69.78170000
H      -45.15590000     -30.07570000     -71.46990000
C      -44.00670000     -31.62910000     -70.66570000
C      -43.14470000     -31.85600000     -69.63730000
C      -43.83800000     -32.47900000     -71.81200000
H      -43.18740000     -31.39530000     -68.62270000
C      -42.70410000     -33.24880000     -71.66200000
C      -44.44120000     -32.72910000     -73.10540000
C      -43.72510000     -33.53340000     -73.89140000
S      -41.92260000     -33.06600000     -70.02600000
S      -42.20360000     -34.08330000     -73.10350000
H      -43.93120000     -33.84770000     -74.95990000
