40
Properties=species:S:1:pos:R:3 #=T CELL(abcABC):=T 1.889726e+02=T 90.00000=T Traj:=T positionsangstrom=T Step:=T 0=T Bead:=T pbc="F F F"
C      -48.10300000     -35.85610000     -71.38650000
C      -46.85700000     -35.29040000     -71.64670000
C      -46.20950000     -34.49160000     -70.69910000
C      -46.68500000     -34.45530000     -69.38750000
C      -47.97050000     -35.03840000     -69.13290000
C      -48.59860000     -35.78540000     -70.09320000
H      -48.56660000     -36.54530000     -72.00030000
H      -45.22280000     -34.19270000     -70.92730000
H      -48.33840000     -35.19950000     -68.16780000
H      -49.53410000     -36.39940000     -69.86930000
C      -45.90900000     -33.67940000     -68.34010000
H      -44.82930000     -33.64010000     -68.57160000
H      -45.95710000     -34.11570000     -67.31630000
C      -46.27780000     -35.58110000     -73.05790000
H      -45.16760000     -35.39430000     -72.92570000
H      -46.54930000     -36.56060000     -73.26020000
S      -46.29430000     -31.85470000     -68.09090000
S      -46.98530000     -34.44790000     -74.35170000
C      -46.53050000     -31.22130000     -69.85670000
H      -46.78330000     -32.01740000     -70.48030000
H      -47.32750000     -30.44990000     -69.77970000
C      -47.03790000     -32.77350000     -73.55510000
H      -47.17980000     -32.94930000     -72.47470000
H      -47.89410000     -32.25480000     -73.98700000
C      -45.74310000     -31.85240000     -73.71560000
H      -45.65600000     -31.56670000     -74.70540000
H      -45.99710000     -30.91980000     -73.12480000
C      -45.23090000     -30.57070000     -70.35470000
H      -44.93280000     -29.79480000     -69.63110000
H      -45.46340000     -30.03290000     -71.27180000
C      -44.11510000     -31.57000000     -70.58550000
C      -43.17530000     -31.81730000     -69.61950000
C      -43.86800000     -32.37860000     -71.83820000
H      -43.11110000     -31.27770000     -68.60530000
C      -42.74810000     -33.19050000     -71.71080000
C      -44.46810000     -32.48420000     -73.19170000
C      -43.77360000     -33.32810000     -73.96410000
S      -42.01660000     -33.05390000     -70.13830000
S      -42.48610000     -34.10760000     -73.12320000
H      -44.04100000     -33.66090000     -74.95960000
