40
Properties=species:S:1:pos:R:3 #=T CELL(abcABC):=T 1.889726e+02=T 90.00000=T Traj:=T positionsangstrom=T Step:=T 0=T Bead:=T pbc="F F F"
C      -48.35720000     -35.54700000     -71.38490000
C      -47.01370000     -35.20070000     -71.67810000
C      -46.23110000     -34.75160000     -70.58550000
C      -46.68080000     -34.90710000     -69.29060000
C      -47.98190000     -35.36430000     -68.98670000
C      -48.79180000     -35.66680000     -70.07010000
H      -49.05970000     -35.76250000     -72.11720000
H      -45.25390000     -34.37450000     -70.79570000
H      -48.21100000     -35.49870000     -67.94650000
H      -49.81210000     -35.93650000     -69.95140000
C      -45.82860000     -34.37350000     -68.13530000
H      -44.76050000     -34.37600000     -68.23400000
H      -46.08090000     -34.87980000     -67.21590000
C      -46.40010000     -35.34050000     -73.09970000
H      -45.25600000     -35.21960000     -73.08600000
H      -46.54770000     -36.36190000     -73.41310000
S      -46.27250000     -32.62520000     -67.76890000
S      -47.12520000     -34.05940000     -74.27210000
C      -46.59160000     -31.76590000     -69.43780000
H      -47.06690000     -32.52150000     -70.03110000
H      -47.36010000     -30.94860000     -69.20980000
C      -47.02990000     -32.44840000     -73.35590000
H      -47.14910000     -32.67420000     -72.31790000
H      -47.93730000     -31.90340000     -73.65110000
C      -45.76590000     -31.60820000     -73.72020000
H      -45.72970000     -31.47540000     -74.78570000
H      -45.93370000     -30.59880000     -73.25980000
C      -45.40010000     -31.03340000     -70.04720000
H      -45.00010000     -30.55350000     -69.13460000
H      -45.70040000     -30.34870000     -70.82920000
C      -44.28390000     -31.92450000     -70.56380000
C      -43.32900000     -32.31090000     -69.66480000
C      -43.89730000     -32.30030000     -71.90710000
H      -43.36160000     -32.03680000     -68.61500000
C      -42.61710000     -32.81590000     -71.97700000
C      -44.45900000     -32.20000000     -73.28080000
C      -43.67960000     -32.78680000     -74.17780000
S      -41.83270000     -32.98230000     -70.40250000
S      -42.11480000     -33.38780000     -73.61910000
H      -43.87730000     -32.82450000     -75.26360000
