40
Properties=species:S:1:pos:R:3 #=T CELL(abcABC):=T 1.889726e+02=T 90.00000=T Traj:=T positionsangstrom=T Step:=T 0=T Bead:=T pbc="F F F"
C      -48.46740000     -35.96070000     -71.20840000
C      -47.23080000     -35.51640000     -71.58350000
C      -46.46700000     -34.69760000     -70.61620000
C      -47.01680000     -34.31010000     -69.38100000
C      -48.31320000     -34.77760000     -69.09680000
C      -49.01120000     -35.59280000     -69.96950000
H      -48.98520000     -36.55900000     -72.02100000
H      -45.43120000     -34.43060000     -70.89410000
H      -48.77850000     -34.38740000     -68.15640000
H      -50.03550000     -35.87730000     -69.72590000
C      -46.17530000     -33.44440000     -68.40930000
H      -45.15870000     -33.30240000     -68.77060000
H      -46.22880000     -33.80230000     -67.34730000
C      -46.60360000     -35.78090000     -72.95120000
H      -45.48730000     -35.87580000     -72.88920000
H      -47.02400000     -36.71870000     -73.32440000
S      -46.86760000     -31.70080000     -68.44170000
S      -47.01720000     -34.47670000     -74.27210000
C      -46.45190000     -31.11370000     -70.22230000
H      -46.89510000     -31.84750000     -70.99860000
H      -47.09120000     -30.23860000     -70.18660000
C      -46.76710000     -32.83980000     -73.51060000
H      -46.94750000     -32.86780000     -72.43330000
H      -47.56810000     -32.24280000     -73.94620000
C      -45.43510000     -32.19350000     -73.75340000
H      -45.25520000     -32.18550000     -74.82950000
H      -45.56940000     -31.14530000     -73.43740000
C      -45.03800000     -30.55720000     -70.53140000
H      -44.81080000     -29.95930000     -69.67990000
H      -45.17630000     -29.90060000     -71.33450000
C      -43.88440000     -31.53290000     -70.73110000
C      -42.92640000     -31.64130000     -69.72430000
C      -43.66490000     -32.41410000     -71.82410000
H      -42.88090000     -30.99360000     -68.91810000
C      -42.52040000     -33.18170000     -71.57630000
C      -44.18590000     -32.72390000     -73.13060000
C      -43.44350000     -33.59960000     -73.84200000
S      -41.73810000     -32.88670000     -69.99470000
S      -42.03100000     -34.22700000     -72.97150000
H      -43.71560000     -34.01360000     -74.81270000
