40
Properties=species:S:1:pos:R:3 #=T CELL(abcABC):=T 1.889726e+02=T 90.00000=T Traj:=T positionsangstrom=T Step:=T 0=T Bead:=T pbc="F F F"
C      -43.46490000     -34.44630000     -73.72550000
C      -44.14060000     -33.44670000     -74.52620000
C      -45.53960000     -33.60030000     -74.63870000
C      -46.17630000     -34.68130000     -74.01550000
C      -45.46330000     -35.70330000     -73.33020000
C      -44.09090000     -35.59790000     -73.22300000
H      -42.38820000     -34.52740000     -73.69600000
H      -46.04560000     -32.72570000     -75.16270000
H      -45.95150000     -36.59460000     -73.03560000
H      -43.46910000     -36.31330000     -72.70540000
C      -47.66280000     -34.69530000     -74.25630000
H      -48.13670000     -35.66030000     -73.88720000
H      -47.99290000     -34.58710000     -75.29580000
C      -43.39110000     -32.22870000     -74.82990000
H      -42.59030000     -32.46790000     -75.54380000
H      -44.03190000     -31.54430000     -75.40400000
S      -48.59920000     -33.26940000     -73.53410000
S      -42.87050000     -31.32340000     -73.22670000
C      -48.24400000     -33.63920000     -71.69390000
H      -49.11960000     -33.30910000     -71.22360000
H      -48.10680000     -34.69650000     -71.62280000
C      -43.30140000     -32.28200000     -71.67500000
H      -42.29930000     -32.45920000     -71.23630000
H      -43.86370000     -33.21380000     -71.82500000
C      -44.07010000     -31.38080000     -70.72790000
H      -43.47690000     -30.43590000     -70.59960000
H      -44.95780000     -30.98450000     -71.27470000
C      -46.90380000     -33.00970000     -71.20160000
H      -46.96080000     -31.91460000     -71.04590000
H      -46.09250000     -33.21120000     -71.86710000
C      -46.50340000     -33.62930000     -69.85140000
C      -47.04600000     -34.73450000     -69.27890000
C      -45.33590000     -33.05840000     -69.15670000
H      -47.79360000     -35.38300000     -69.60300000
C      -45.21770000     -33.58950000     -67.85800000
C      -44.36090000     -32.06160000     -69.46530000
C      -43.47880000     -31.92300000     -68.37390000
S      -46.29790000     -34.93540000     -67.65030000
S      -43.87460000     -32.92160000     -66.99130000
H      -42.64560000     -31.28530000     -68.38730000
