40
Properties=species:S:1:pos:R:3 #=T CELL(abcABC):=T 1.889726e+02=T 90.00000=T Traj:=T positionsangstrom=T Step:=T 0=T Bead:=T pbc="F F F"
C      -43.28750000     -35.24630000     -67.77690000
C      -43.96030000     -35.65940000     -68.89510000
C      -43.35190000     -35.69800000     -70.17670000
C      -42.08610000     -35.15450000     -70.31390000
C      -41.37880000     -34.60190000     -69.18510000
C      -42.01240000     -34.65050000     -67.90890000
H      -43.80210000     -35.23710000     -66.81070000
H      -43.78010000     -36.23140000     -71.09210000
H      -40.52060000     -34.00020000     -69.25690000
H      -41.46810000     -34.24300000     -67.04790000
C      -41.49520000     -34.87740000     -71.71930000
H      -41.97240000     -35.52090000     -72.43930000
H      -40.40100000     -35.02470000     -71.71750000
C      -45.41000000     -36.00390000     -68.72840000
H      -45.59410000     -36.87020000     -69.38180000
H      -45.55870000     -36.30790000     -67.61290000
S      -41.80760000     -33.12100000     -72.34400000
S      -46.60610000     -34.70140000     -69.05990000
C      -43.61120000     -33.24310000     -72.85170000
H      -43.51800000     -33.43180000     -73.93090000
H      -43.87520000     -34.17580000     -72.32680000
C      -45.52850000     -33.35760000     -69.76770000
H      -45.04340000     -33.65070000     -70.72330000
H      -44.74000000     -33.23300000     -69.08030000
C      -46.38160000     -32.01650000     -69.81310000
H      -47.01480000     -31.94940000     -68.92690000
H      -45.71850000     -31.07840000     -69.79620000
C      -44.36710000     -31.94740000     -72.60460000
H      -43.80150000     -31.07160000     -73.07390000
H      -44.39070000     -31.67110000     -71.54230000
C      -45.73040000     -31.95450000     -73.18440000
C      -45.93410000     -31.88660000     -74.53270000
C      -46.93340000     -32.12260000     -72.45930000
H      -45.14250000     -31.73160000     -75.27520000
C      -48.07470000     -32.11860000     -73.27360000
C      -47.26040000     -32.06610000     -71.01860000
C      -48.62150000     -32.19960000     -70.89340000
S      -47.67240000     -31.79390000     -74.96650000
S      -49.55860000     -32.22300000     -72.34800000
H      -49.09110000     -32.24120000     -69.92350000
