40
Properties=species:S:1:pos:R:3 #=T CELL(abcABC):=T 1.889726e+02=T 90.00000=T Traj:=T positionsangstrom=T Step:=T 0=T Bead:=T pbc="F F F"
C      -48.03900000     -36.04360000     -71.94210000
C      -46.92250000     -35.29710000     -72.22530000
C      -45.94710000     -34.94950000     -71.27310000
C      -46.16570000     -35.38800000     -69.98310000
C      -47.31940000     -36.15400000     -69.68840000
C      -48.24720000     -36.51050000     -70.65820000
H      -48.76070000     -36.26590000     -72.72400000
H      -45.09770000     -34.27770000     -71.57870000
H      -47.44420000     -36.40370000     -68.62190000
H      -49.21410000     -36.93550000     -70.36930000
C      -45.22890000     -35.05200000     -68.82400000
H      -44.18500000     -34.82250000     -69.12240000
H      -45.23600000     -35.79990000     -68.08260000
C      -46.68000000     -34.88160000     -73.64850000
H      -45.63920000     -34.75820000     -73.93430000
H      -47.07410000     -35.73730000     -74.29050000
S      -45.66820000     -33.47740000     -67.88180000
S      -47.63750000     -33.33190000     -74.09680000
C      -46.34990000     -32.15120000     -69.04460000
H      -46.76740000     -32.69310000     -69.93980000
H      -47.28150000     -31.69650000     -68.53320000
C      -47.40800000     -32.37310000     -72.57520000
H      -47.10580000     -32.97590000     -71.78570000
H      -48.33070000     -31.84510000     -72.35910000
C      -46.35660000     -31.35010000     -72.67100000
H      -46.53840000     -30.62440000     -73.46780000
H      -46.34130000     -30.69250000     -71.78810000
C      -45.26860000     -31.06180000     -69.36350000
H      -44.92370000     -30.75910000     -68.33920000
H      -45.81550000     -30.31080000     -69.99440000
C      -44.10190000     -31.65660000     -70.12040000
C      -42.91550000     -31.90050000     -69.45570000
C      -44.02410000     -31.94600000     -71.55140000
H      -42.62200000     -31.76770000     -68.46020000
C      -42.83370000     -32.53100000     -71.91260000
C      -44.92120000     -31.84190000     -72.71590000
C      -44.36040000     -32.46300000     -73.83010000
S      -41.73870000     -32.70640000     -70.53600000
S      -42.79760000     -33.00980000     -73.55530000
H      -44.79440000     -32.40140000     -74.80590000
