40
Properties=species:S:1:pos:R:3 #=T CELL(abcABC):=T 1.889726e+02=T 90.00000=T Traj:=T positionsangstrom=T Step:=T 0=T Bead:=T pbc="F F F"
C      -47.90830000     -36.26700000     -71.90730000
C      -46.97960000     -35.32440000     -72.27520000
C      -45.92780000     -34.95130000     -71.38700000
C      -45.92440000     -35.45940000     -70.06190000
C      -46.86140000     -36.41630000     -69.70800000
C      -47.90870000     -36.72240000     -70.57040000
H      -48.57400000     -36.53670000     -72.71210000
H      -45.09300000     -34.35530000     -71.74190000
H      -46.84430000     -36.76630000     -68.68130000
H      -48.64100000     -37.43940000     -70.26500000
C      -44.88070000     -35.02470000     -69.05200000
H      -44.04420000     -34.59530000     -69.53550000
H      -44.56010000     -35.81640000     -68.32200000
C      -46.96840000     -34.88750000     -73.70380000
H      -45.89890000     -34.84830000     -73.96140000
H      -47.51060000     -35.62540000     -74.26650000
S      -45.58780000     -33.81380000     -67.78670000
S      -47.70130000     -33.24760000     -74.10950000
C      -46.36370000     -32.50440000     -68.81440000
H      -46.90550000     -32.96120000     -69.70550000
H      -47.20890000     -32.23410000     -68.15090000
C      -47.56370000     -32.23590000     -72.55070000
H      -47.32830000     -32.96500000     -71.74940000
H      -48.50460000     -31.80260000     -72.35310000
C      -46.43260000     -31.11250000     -72.66670000
H      -46.52540000     -30.54340000     -73.61130000
H      -46.52290000     -30.34250000     -71.86200000
C      -45.45730000     -31.33120000     -69.26330000
H      -45.21970000     -30.77880000     -68.38310000
H      -46.08220000     -30.66790000     -69.75430000
C      -44.26190000     -31.77940000     -70.07330000
C      -43.07280000     -32.12410000     -69.46180000
C      -44.17880000     -31.91570000     -71.52730000
H      -42.88920000     -32.10050000     -68.38750000
C      -42.89420000     -32.34720000     -71.88720000
C      -45.01330000     -31.68690000     -72.67070000
C      -44.42330000     -32.06520000     -73.87720000
S      -41.80740000     -32.55360000     -70.54890000
S      -42.77100000     -32.62840000     -73.62920000
H      -44.82960000     -32.16740000     -74.90870000
