40
Properties=species:S:1:pos:R:3 #=T CELL(abcABC):=T 1.889726e+02=T 90.00000=T Traj:=T positionsangstrom=T Step:=T 0=T Bead:=T pbc="F F F"
C      -48.43120000     -35.80960000     -71.56900000
C      -47.06200000     -35.54330000     -71.81070000
C      -46.27460000     -35.02650000     -70.82820000
C      -46.75460000     -35.00380000     -69.49730000
C      -48.04930000     -35.30630000     -69.17170000
C      -48.83220000     -35.74780000     -70.20730000
H      -49.17430000     -36.09760000     -72.36820000
H      -45.25770000     -34.65840000     -71.08110000
H      -48.42240000     -35.36480000     -68.16380000
H      -49.84470000     -36.11920000     -69.96580000
C      -45.78310000     -34.57490000     -68.34950000
H      -44.81560000     -34.99570000     -68.68030000
H      -46.06600000     -35.15840000     -67.41120000
C      -46.56610000     -35.64400000     -73.24460000
H      -45.48270000     -35.83820000     -73.33620000
H      -47.04730000     -36.47350000     -73.88860000
S      -45.79860000     -32.81750000     -67.96100000
S      -46.99420000     -34.00070000     -74.07370000
C      -46.36830000     -31.73980000     -69.39110000
H      -46.80490000     -32.28940000     -70.24390000
H      -47.14800000     -31.15860000     -68.94090000
C      -47.03810000     -32.53980000     -72.81040000
H      -46.62770000     -32.94430000     -71.86680000
H      -48.11400000     -32.27460000     -72.65090000
C      -46.09940000     -31.36430000     -73.17980000
H      -46.21630000     -30.97780000     -74.17480000
H      -46.26270000     -30.56510000     -72.50900000
C      -45.24510000     -30.83310000     -69.86000000
H      -44.98730000     -30.23000000     -69.03310000
H      -45.62250000     -30.11100000     -70.59330000
C      -44.10610000     -31.62810000     -70.41140000
C      -43.01900000     -32.13900000     -69.69930000
C      -43.93370000     -31.94830000     -71.76610000
H      -43.00500000     -32.06260000     -68.62160000
C      -42.71980000     -32.67720000     -72.03670000
C      -44.65910000     -31.91850000     -72.99750000
C      -44.00610000     -32.52460000     -74.02450000
S      -41.82830000     -33.03970000     -70.63180000
S      -42.46110000     -33.28630000     -73.62690000
H      -44.30360000     -32.62120000     -75.03900000
