40
Properties=species:S:1:pos:R:3 #=T CELL(abcABC):=T 1.889726e+02=T 90.00000=T Traj:=T positionsangstrom=T Step:=T 0=T Bead:=T pbc="F F F"
C      -48.14860000     -35.85640000     -71.82890000
C      -46.89340000     -35.22320000     -72.14570000
C      -45.90410000     -34.98600000     -71.21840000
C      -46.16370000     -35.21940000     -69.83570000
C      -47.39970000     -35.78050000     -69.56510000
C      -48.43530000     -36.01510000     -70.49080000
H      -48.93060000     -35.98530000     -72.55060000
H      -44.93010000     -34.56660000     -71.49880000
H      -47.64380000     -35.92120000     -68.51160000
H      -49.22280000     -36.59640000     -70.12800000
C      -45.31390000     -34.73990000     -68.69150000
H      -44.28300000     -34.63720000     -68.98650000
H      -45.22970000     -35.58520000     -67.97300000
C      -46.57900000     -35.04740000     -73.63730000
H      -45.49570000     -34.87950000     -73.81340000
H      -46.93630000     -35.86000000     -74.25900000
S      -46.12590000     -33.34220000     -67.87010000
S      -47.53140000     -33.59070000     -74.25160000
C      -46.32980000     -32.00750000     -69.14490000
H      -46.49710000     -32.56090000     -70.07150000
H      -47.23200000     -31.50790000     -68.83520000
C      -47.55420000     -32.37800000     -72.82950000
H      -47.52290000     -33.04670000     -71.92310000
H      -48.47550000     -31.76390000     -72.73050000
C      -46.23310000     -31.41720000     -72.71610000
H      -46.22670000     -30.81340000     -73.67090000
H      -46.44490000     -30.68350000     -71.89510000
C      -45.16660000     -31.11430000     -69.35620000
H      -44.66640000     -30.75570000     -68.40930000
H      -45.59230000     -30.22620000     -69.92780000
C      -44.05090000     -31.78890000     -70.15240000
C      -42.87460000     -31.96480000     -69.47850000
C      -43.99910000     -32.17980000     -71.54080000
H      -42.67130000     -31.60810000     -68.43870000
C      -42.79550000     -32.77440000     -71.82750000
C      -44.86860000     -32.11400000     -72.67850000
C      -44.25140000     -32.59640000     -73.83960000
S      -41.56340000     -32.58370000     -70.60030000
S      -42.68240000     -33.17440000     -73.52980000
H      -44.75250000     -32.65590000     -74.80990000
