40
Properties=species:S:1:pos:R:3 #=T CELL(abcABC):=T 1.889726e+02=T 90.00000=T Traj:=T positionsangstrom=T Step:=T 0=T Bead:=T pbc="F F F"
C      -48.03480000     -36.21990000     -71.87500000
C      -46.95280000     -35.40860000     -72.33210000
C      -45.91310000     -34.99070000     -71.44170000
C      -45.89270000     -35.59580000     -70.21080000
C      -46.97020000     -36.40140000     -69.72540000
C      -47.97310000     -36.80700000     -70.57030000
H      -48.83370000     -36.42790000     -72.55750000
H      -45.18620000     -34.19780000     -71.72910000
H      -46.84240000     -36.72770000     -68.72760000
H      -48.80880000     -37.31490000     -70.14600000
C      -44.80850000     -35.12320000     -69.25600000
H      -43.98070000     -34.63280000     -69.80470000
H      -44.50630000     -36.05690000     -68.65540000
C      -46.86820000     -34.85370000     -73.71510000
H      -45.79540000     -34.81210000     -74.04580000
H      -47.40240000     -35.39430000     -74.51330000
S      -45.34720000     -33.94500000     -67.85530000
S      -47.68850000     -33.19480000     -73.94650000
C      -46.43690000     -32.74590000     -68.82640000
H      -46.95990000     -33.27890000     -69.59880000
H      -47.17000000     -32.32490000     -68.15720000
C      -47.51150000     -32.17870000     -72.40630000
H      -47.22880000     -32.81220000     -71.57090000
H      -48.57230000     -31.70930000     -72.31830000
C      -46.48290000     -31.04240000     -72.55300000
H      -46.77510000     -30.54920000     -73.48110000
H      -46.53290000     -30.30970000     -71.77030000
C      -45.59610000     -31.48500000     -69.28720000
H      -45.14330000     -30.98990000     -68.40550000
H      -46.29100000     -30.76900000     -69.81080000
C      -44.32110000     -31.78520000     -70.06730000
C      -43.17240000     -32.14130000     -69.42420000
C      -44.20680000     -31.85090000     -71.53410000
H      -43.15630000     -32.22720000     -68.30450000
C      -42.94150000     -32.30510000     -71.89750000
C      -45.05540000     -31.57500000     -72.67590000
C      -44.42110000     -31.89010000     -73.83930000
S      -41.84940000     -32.57570000     -70.54460000
S      -42.75720000     -32.44410000     -73.65730000
H      -44.74660000     -31.76300000     -74.86600000
