40
Properties=species:S:1:pos:R:3 #=T CELL(abcABC):=T 1.889726e+02=T 90.00000=T Traj:=T positionsangstrom=T Step:=T 0=T Bead:=T pbc="F F F"
C      -47.28240000     -36.19530000     -72.94370000
C      -46.41070000     -35.12240000     -72.81450000
C      -45.61250000     -35.02440000     -71.62560000
C      -45.74070000     -35.90180000     -70.55610000
C      -46.79750000     -36.82200000     -70.74990000
C      -47.44390000     -37.07000000     -71.92780000
H      -47.84770000     -36.26720000     -73.84480000
H      -44.85760000     -34.26900000     -71.55210000
H      -46.95050000     -37.48290000     -69.89830000
H      -48.18760000     -37.82620000     -72.05080000
C      -44.94780000     -35.70890000     -69.25770000
H      -43.99700000     -35.19770000     -69.32030000
H      -44.90220000     -36.71760000     -68.78100000
C      -46.27980000     -34.03740000     -73.86300000
H      -45.34780000     -33.53300000     -73.62990000
H      -46.28870000     -34.43480000     -74.85250000
S      -45.92820000     -34.89450000     -67.92270000
S      -47.65180000     -32.78380000     -73.75220000
C      -46.32570000     -33.19920000     -68.49270000
H      -46.89560000     -33.25600000     -69.39720000
H      -47.17790000     -32.83500000     -67.86510000
C      -47.64700000     -32.14440000     -72.05380000
H      -47.34020000     -32.97690000     -71.38280000
H      -48.63310000     -31.76600000     -71.87950000
C      -46.70840000     -30.93750000     -71.69120000
H      -47.23450000     -30.17160000     -72.25580000
H      -46.82530000     -30.86270000     -70.63580000
C      -45.32600000     -32.06200000     -68.68390000
H      -44.85420000     -31.81470000     -67.70860000
H      -45.90670000     -31.13340000     -69.00610000
C      -44.30670000     -32.29640000     -69.83750000
C      -43.09960000     -32.85420000     -69.53320000
C      -44.27330000     -31.71180000     -71.11490000
H      -42.69500000     -33.14110000     -68.50630000
C      -43.07070000     -31.83590000     -71.74210000
C      -45.29960000     -31.19460000     -72.02940000
C      -44.88120000     -31.09190000     -73.32280000
S      -41.82330000     -32.61140000     -70.71810000
S      -43.11120000     -31.51010000     -73.44180000
H      -45.33360000     -30.40520000     -74.09450000
