40
Properties=species:S:1:pos:R:3 #=T CELL(abcABC):=T 1.889726e+02=T 90.00000=T Traj:=T positionsangstrom=T Step:=T 0=T Bead:=T pbc="F F F"
C      -47.53100000     -35.93330000     -72.89860000
C      -46.45180000     -35.04000000     -72.87620000
C      -45.66120000     -35.06100000     -71.72160000
C      -45.87150000     -35.83090000     -70.63820000
C      -47.00670000     -36.63890000     -70.66530000
C      -47.76370000     -36.78100000     -71.82250000
H      -48.07240000     -36.14750000     -73.82920000
H      -44.77550000     -34.37870000     -71.67230000
H      -47.12020000     -37.31470000     -69.83830000
H      -48.60790000     -37.46170000     -71.79880000
C      -44.92320000     -35.88380000     -69.48780000
H      -43.96240000     -35.52490000     -69.84160000
H      -44.75820000     -36.97090000     -69.22860000
C      -46.28560000     -34.02580000     -74.01010000
H      -45.24190000     -33.67790000     -73.99110000
H      -46.49430000     -34.45750000     -74.98560000
S      -45.59710000     -35.09090000     -67.98030000
S      -47.55210000     -32.74340000     -74.02810000
C      -46.50570000     -33.68570000     -68.69600000
H      -46.85880000     -33.96390000     -69.66510000
H      -47.38570000     -33.51010000     -68.04960000
C      -47.60720000     -32.19810000     -72.26260000
H      -47.33850000     -33.08750000     -71.62460000
H      -48.63660000     -32.01520000     -71.96970000
C      -46.66810000     -30.94220000     -71.97870000
H      -47.08920000     -30.21510000     -72.74990000
H      -46.95590000     -30.51610000     -71.02520000
C      -45.83410000     -32.31170000     -68.91540000
H      -45.59600000     -31.83560000     -67.93430000
H      -46.62680000     -31.72180000     -69.42470000
C      -44.54700000     -32.32640000     -69.77510000
C      -43.42020000     -32.85650000     -69.24600000
C      -44.34620000     -31.86800000     -71.15050000
H      -43.41060000     -33.47350000     -68.42130000
C      -43.05920000     -32.04680000     -71.60850000
C      -45.17550000     -31.24400000     -72.12390000
C      -44.47300000     -30.75920000     -73.20790000
S      -41.94380000     -32.59780000     -70.31840000
S      -42.71260000     -31.20740000     -73.08440000
H      -44.90790000     -30.25730000     -74.01350000
