40
Properties=species:S:1:pos:R:3 #=T CELL(abcABC):=T 1.889726e+02=T 90.00000=T Traj:=T positionsangstrom=T Step:=T 0=T Bead:=T pbc="F F F"
C      -47.44940000     -36.05000000     -72.97950000
C      -46.46860000     -35.08860000     -72.90420000
C      -45.66300000     -35.06320000     -71.74170000
C      -45.72010000     -36.02130000     -70.71810000
C      -46.67690000     -37.01230000     -70.91880000
C      -47.61040000     -37.04650000     -71.97400000
H      -48.04610000     -36.17690000     -73.87300000
H      -44.91550000     -34.28120000     -71.79570000
H      -46.76960000     -37.79890000     -70.16470000
H      -48.18150000     -37.97410000     -72.11590000
C      -44.89820000     -35.93120000     -69.43050000
H      -43.92870000     -35.40810000     -69.64650000
H      -44.74240000     -36.85110000     -68.89780000
C      -46.28190000     -34.05140000     -73.96130000
H      -45.32070000     -33.60520000     -73.84210000
H      -46.30140000     -34.60150000     -74.90430000
S      -45.68730000     -34.85720000     -68.12820000
S      -47.50720000     -32.59450000     -73.92540000
C      -46.56410000     -33.34390000     -68.85260000
H      -46.84660000     -33.47500000     -69.91230000
H      -47.50810000     -33.26040000     -68.28960000
C      -47.56510000     -32.13540000     -72.10290000
H      -47.19530000     -32.96700000     -71.50520000
H      -48.65100000     -31.98700000     -71.91160000
C      -46.71160000     -30.92400000     -71.67590000
H      -47.27770000     -30.11790000     -72.17660000
H      -46.92250000     -30.71750000     -70.59050000
C      -45.62460000     -32.09540000     -68.65570000
H      -45.29670000     -32.20580000     -67.59290000
H      -46.07620000     -31.08450000     -68.65480000
C      -44.38660000     -32.07970000     -69.61470000
C      -43.24180000     -32.66510000     -69.17080000
C      -44.32620000     -31.65200000     -70.98440000
H      -42.94880000     -33.06470000     -68.14380000
C      -43.00390000     -31.82540000     -71.50530000
C      -45.26780000     -31.16780000     -71.96800000
C      -44.73620000     -31.03910000     -73.18700000
S      -41.97800000     -32.73540000     -70.45520000
S      -43.03540000     -31.54990000     -73.24160000
H      -45.24390000     -30.72270000     -74.06660000
