40
Properties=species:S:1:pos:R:3 #=T CELL(abcABC):=T 1.889726e+02=T 90.00000=T Traj:=T positionsangstrom=T Step:=T 0=T Bead:=T pbc="F F F"
C      -47.54220000     -36.00500000     -73.01250000
C      -46.47270000     -35.11410000     -72.93430000
C      -45.71360000     -35.11600000     -71.81930000
C      -45.88280000     -35.94960000     -70.72320000
C      -46.94270000     -36.83950000     -70.81160000
C      -47.68250000     -36.94020000     -71.98310000
H      -48.34430000     -35.85730000     -73.75810000
H      -44.93740000     -34.35030000     -71.67520000
H      -47.16350000     -37.47810000     -70.00830000
H      -48.54730000     -37.64960000     -71.98740000
C      -44.91020000     -35.87710000     -69.54710000
H      -44.05850000     -35.23760000     -69.79910000
H      -44.63840000     -36.85380000     -69.20980000
C      -46.17470000     -34.15010000     -73.99760000
H      -45.20220000     -33.74030000     -73.89450000
H      -46.38050000     -34.51240000     -75.03040000
S      -45.67680000     -35.02730000     -68.03610000
S      -47.45310000     -32.67040000     -73.94570000
C      -46.49030000     -33.49420000     -68.66950000
H      -46.95730000     -33.76970000     -69.65400000
H      -47.31220000     -33.40190000     -67.98430000
C      -47.58410000     -32.04460000     -72.17660000
H      -47.25150000     -32.86550000     -71.55460000
H      -48.61130000     -31.78380000     -71.97980000
C      -46.72690000     -30.79750000     -71.91460000
H      -46.83240000     -29.96610000     -72.55600000
H      -46.87370000     -30.52840000     -70.84730000
C      -45.69280000     -32.13790000     -68.77010000
H      -45.39120000     -31.82730000     -67.78710000
H      -46.42580000     -31.37440000     -69.03880000
C      -44.44160000     -32.20030000     -69.62100000
C      -43.24210000     -32.71320000     -69.21010000
C      -44.38680000     -31.76830000     -70.99810000
H      -42.98200000     -33.01580000     -68.19940000
C      -43.09550000     -32.03030000     -71.53410000
C      -45.23480000     -31.15070000     -72.01650000
C      -44.54380000     -30.93060000     -73.17380000
S      -41.96500000     -32.66820000     -70.37800000
S      -42.87910000     -31.39710000     -73.15040000
H      -44.99290000     -30.46270000     -73.99820000
