40
Properties=species:S:1:pos:R:3 #=T CELL(abcABC):=T 1.889726e+02=T 90.00000=T Traj:=T positionsangstrom=T Step:=T 0=T Bead:=T pbc="F F F"
C      -47.34740000     -36.26750000     -73.22750000
C      -46.27600000     -35.38530000     -73.27320000
C      -45.51590000     -35.25010000     -72.07140000
C      -45.74520000     -35.96280000     -70.86650000
C      -46.91910000     -36.78160000     -70.89420000
C      -47.64260000     -36.96210000     -72.02800000
H      -48.04160000     -36.41800000     -74.03240000
H      -44.85630000     -34.40490000     -72.04330000
H      -47.07680000     -37.42420000     -70.01440000
H      -48.64190000     -37.49880000     -71.94470000
C      -44.93440000     -35.85380000     -69.61190000
H      -44.02770000     -35.32860000     -69.86660000
H      -44.59620000     -36.82350000     -69.24300000
C      -46.11400000     -34.32300000     -74.33390000
H      -45.08280000     -33.93210000     -74.18640000
H      -46.21690000     -34.73220000     -75.32700000
S      -45.88030000     -35.11060000     -68.22650000
S      -47.44320000     -32.91600000     -74.13020000
C      -46.52810000     -33.53440000     -68.95380000
H      -46.49690000     -33.79380000     -69.99740000
H      -47.53540000     -33.44540000     -68.58040000
C      -47.66200000     -32.44710000     -72.42360000
H      -47.61900000     -33.31780000     -71.68770000
H      -48.70890000     -32.17300000     -72.28300000
C      -46.87840000     -31.31850000     -71.77000000
H      -47.11000000     -30.42830000     -72.39090000
H      -47.23240000     -31.02890000     -70.75070000
C      -45.70140000     -32.28730000     -68.59690000
H      -45.37560000     -32.41170000     -67.55130000
H      -46.46690000     -31.47710000     -68.59520000
C      -44.45900000     -32.00940000     -69.40510000
C      -43.18350000     -32.04240000     -68.83610000
C      -44.41610000     -31.76800000     -70.84230000
H      -42.89570000     -32.28500000     -67.86910000
C      -43.06830000     -31.71830000     -71.27810000
C      -45.33390000     -31.42970000     -71.84610000
C      -44.66130000     -31.14580000     -73.02950000
S      -41.88230000     -31.83340000     -70.00810000
S      -42.89810000     -31.34270000     -72.96270000
H      -45.23650000     -30.94930000     -73.94420000
