40
Properties=species:S:1:pos:R:3 #=T CELL(abcABC):=T 1.889726e+02=T 90.00000=T Traj:=T positionsangstrom=T Step:=T 0=T Bead:=T pbc="F F F"
C      -47.79890000     -35.95430000     -72.60340000
C      -46.57570000     -35.22930000     -72.83430000
C      -45.62570000     -35.37130000     -71.87050000
C      -45.82800000     -36.16050000     -70.68930000
C      -46.93100000     -36.98240000     -70.61310000
C      -47.94980000     -36.88910000     -71.57430000
H      -48.51970000     -36.02380000     -73.40110000
H      -44.65530000     -34.86420000     -71.98330000
H      -47.10470000     -37.45170000     -69.70190000
H      -48.91200000     -37.43190000     -71.38120000
C      -44.84650000     -36.06590000     -69.49900000
H      -43.84900000     -35.63590000     -69.80200000
H      -44.62880000     -37.03280000     -69.13290000
C      -46.34030000     -34.44200000     -74.11870000
H      -45.31460000     -34.30130000     -74.30520000
H      -46.74500000     -35.08900000     -74.89840000
S      -45.47830000     -35.01910000     -68.04170000
S      -47.19600000     -32.80250000     -74.12690000
C      -46.47550000     -33.65560000     -68.85280000
H      -46.65770000     -34.04930000     -69.87260000
H      -47.40380000     -33.54160000     -68.29620000
C      -47.47860000     -32.45480000     -72.34570000
H      -47.08040000     -33.35250000     -71.78880000
H      -48.52580000     -32.30780000     -72.14200000
C      -46.79470000     -31.12820000     -72.07180000
H      -47.13720000     -30.36340000     -72.73960000
H      -47.05130000     -30.68420000     -71.11030000
C      -45.91330000     -32.25890000     -69.02920000
H      -45.77970000     -31.78060000     -68.07090000
H      -46.63210000     -31.64870000     -69.59730000
C      -44.62430000     -32.27100000     -69.81740000
C      -43.44350000     -32.65660000     -69.23750000
C      -44.46640000     -31.74700000     -71.16860000
H      -43.36040000     -32.88490000     -68.14540000
C      -43.07480000     -31.64620000     -71.39690000
C      -45.32480000     -31.12570000     -72.15420000
C      -44.51140000     -30.67590000     -73.23850000
S      -41.98750000     -32.34790000     -70.23220000
S      -42.80240000     -30.92640000     -72.98640000
H      -44.94990000     -30.11450000     -74.10340000
