40
Properties=species:S:1:pos:R:3 #=T CELL(abcABC):=T 1.889726e+02=T 90.00000=T Traj:=T positionsangstrom=T Step:=T 0=T Bead:=T pbc="F F F"
C      -47.69180000     -36.21950000     -72.75480000
C      -46.64030000     -35.30580000     -72.85440000
C      -45.75890000     -35.30620000     -71.75300000
C      -45.92670000     -36.09740000     -70.64980000
C      -47.06530000     -36.88770000     -70.50800000
C      -47.88370000     -37.03870000     -71.60670000
H      -48.38100000     -36.31350000     -73.66130000
H      -44.86930000     -34.62630000     -71.81830000
H      -47.07230000     -37.55030000     -69.72370000
H      -48.69560000     -37.73490000     -71.57820000
C      -44.94870000     -36.05980000     -69.54310000
H      -44.03560000     -35.57830000     -69.93130000
H      -44.62060000     -37.05920000     -69.22180000
C      -46.24630000     -34.59370000     -74.05730000
H      -45.14950000     -34.47840000     -74.15290000
H      -46.58180000     -35.25350000     -74.89140000
S      -45.60450000     -35.11150000     -68.15490000
S      -47.09240000     -32.90330000     -74.22520000
C      -46.53240000     -33.72620000     -68.89790000
H      -46.66960000     -33.98350000     -69.92540000
H      -47.57150000     -33.64460000     -68.42910000
C      -47.55950000     -32.31630000     -72.56750000
H      -47.46030000     -33.18810000     -71.90110000
H      -48.61320000     -32.05440000     -72.55530000
C      -46.79670000     -31.07990000     -71.89270000
H      -47.32680000     -30.18530000     -72.36060000
H      -47.14660000     -31.08320000     -70.90070000
C      -45.75230000     -32.43480000     -68.78470000
H      -45.46910000     -32.27020000     -67.76890000
H      -46.43790000     -31.64770000     -69.09710000
C      -44.46070000     -32.29650000     -69.70900000
C      -43.22440000     -32.52740000     -69.16290000
C      -44.38310000     -31.67850000     -71.02070000
H      -42.95060000     -33.01970000     -68.15090000
C      -43.08150000     -31.44820000     -71.36940000
C      -45.33780000     -31.16010000     -72.04990000
C      -44.63460000     -30.77280000     -73.19310000
S      -41.87580000     -32.07840000     -70.29110000
S      -42.92800000     -30.86580000     -73.00190000
H      -45.02620000     -30.43890000     -74.13050000
