40
Properties=species:S:1:pos:R:3 #=T CELL(abcABC):=T 1.889726e+02=T 90.00000=T Traj:=T positionsangstrom=T Step:=T 0=T Bead:=T pbc="F F F"
C      -47.68970000     -36.25120000     -72.93050000
C      -46.57180000     -35.41450000     -73.04020000
C      -45.70040000     -35.40440000     -71.92180000
C      -45.96920000     -36.15650000     -70.78090000
C      -47.01930000     -37.05780000     -70.77490000
C      -47.91840000     -37.11320000     -71.88260000
H      -48.44460000     -36.09550000     -73.69520000
H      -44.77170000     -34.80870000     -71.99150000
H      -47.15000000     -37.61680000     -69.83630000
H      -48.62700000     -37.85460000     -71.95370000
C      -45.00280000     -36.01610000     -69.60620000
H      -44.14260000     -35.43220000     -69.79070000
H      -44.80400000     -37.00680000     -69.16600000
C      -46.34000000     -34.53890000     -74.27370000
H      -45.30470000     -34.28220000     -74.42860000
H      -46.64450000     -34.97280000     -75.20950000
S      -45.79590000     -35.11220000     -68.06690000
S      -47.17190000     -32.91940000     -74.28210000
C      -46.39130000     -33.53520000     -68.82540000
H      -46.56150000     -33.65600000     -69.88760000
H      -47.37040000     -33.34540000     -68.41970000
C      -47.49490000     -32.46320000     -72.41140000
H      -47.18980000     -33.37100000     -71.88030000
H      -48.63450000     -32.27630000     -72.22250000
C      -46.80990000     -31.23180000     -71.83430000
H      -47.07250000     -30.26910000     -72.40880000
H      -46.95190000     -31.07690000     -70.76070000
C      -45.60010000     -32.27680000     -68.67250000
H      -45.34940000     -32.20700000     -67.56420000
H      -46.32330000     -31.44040000     -68.76010000
C      -44.34120000     -32.10370000     -69.49620000
C      -43.08350000     -32.16100000     -68.97180000
C      -44.33760000     -31.74760000     -70.89570000
H      -42.75950000     -32.32500000     -67.89450000
C      -43.06140000     -31.60330000     -71.37310000
C      -45.33070000     -31.32800000     -71.98660000
C      -44.72370000     -30.85200000     -73.12150000
S      -41.81260000     -31.95990000     -70.15970000
S      -42.94660000     -30.90200000     -73.01510000
H      -45.20290000     -30.51560000     -74.01700000
