40
Properties=species:S:1:pos:R:3 #=T CELL(abcABC):=T 1.889726e+02=T 90.00000=T Traj:=T positionsangstrom=T Step:=T 0=T Bead:=T pbc="F F F"
C      -47.59580000     -35.76970000     -72.75510000
C      -46.39890000     -35.04790000     -72.84190000
C      -45.49140000     -35.23770000     -71.76360000
C      -45.76490000     -36.01670000     -70.68120000
C      -46.90460000     -36.83480000     -70.75040000
C      -47.91120000     -36.65000000     -71.72070000
H      -48.37300000     -35.52610000     -73.46530000
H      -44.54180000     -34.74200000     -71.80170000
H      -47.20660000     -37.41420000     -69.82530000
H      -48.83760000     -37.18660000     -71.69750000
C      -44.90270000     -35.97320000     -69.49510000
H      -43.93780000     -35.60580000     -69.77450000
H      -44.61640000     -36.95530000     -69.08270000
C      -46.13490000     -34.05440000     -74.01390000
H      -45.17090000     -33.51980000     -73.76490000
H      -45.99010000     -34.44740000     -74.97590000
S      -45.58110000     -34.98820000     -68.02700000
S      -47.63960000     -32.86170000     -74.03280000
C      -46.71190000     -33.73080000     -68.77590000
H      -47.18990000     -34.08220000     -69.72280000
H      -47.52050000     -33.55830000     -68.03550000
C      -47.56630000     -32.16580000     -72.30420000
H      -47.32690000     -32.99890000     -71.62880000
H      -48.59310000     -31.80690000     -72.14770000
C      -46.65310000     -30.95530000     -72.14520000
H      -46.80230000     -30.16630000     -72.90400000
H      -46.87680000     -30.39390000     -71.26090000
C      -45.95730000     -32.38010000     -68.95260000
H      -45.72240000     -31.99380000     -67.96480000
H      -46.63930000     -31.69130000     -69.40640000
C      -44.63200000     -32.42080000     -69.77180000
C      -43.46090000     -32.90750000     -69.32910000
C      -44.33580000     -31.77740000     -71.12740000
H      -43.43170000     -33.44500000     -68.44230000
C      -42.98830000     -31.77190000     -71.44880000
C      -45.15110000     -31.16520000     -72.11330000
C      -44.34170000     -30.80340000     -73.19970000
S      -42.01920000     -32.71940000     -70.31890000
S      -42.66090000     -31.00310000     -72.99480000
H      -44.75240000     -30.39770000     -74.11100000
