40
Properties=species:S:1:pos:R:3 #=T CELL(abcABC):=T 1.889726e+02=T 90.00000=T Traj:=T positionsangstrom=T Step:=T 0=T Bead:=T pbc="F F F"
C      -47.02490000     -36.30080000     -73.16610000
C      -46.32040000     -35.09380000     -73.04990000
C      -45.54350000     -34.86690000     -71.92090000
C      -45.51960000     -35.84840000     -70.87940000
C      -46.29300000     -37.01840000     -70.98600000
C      -46.99920000     -37.27160000     -72.13860000
H      -47.65350000     -36.49160000     -74.03990000
H      -45.09180000     -33.94340000     -71.82550000
H      -46.19330000     -37.81480000     -70.25970000
H      -47.63130000     -38.14620000     -72.19240000
C      -44.64950000     -35.53520000     -69.71620000
H      -43.91760000     -34.74580000     -70.06760000
H      -44.00180000     -36.41360000     -69.51900000
C      -46.28440000     -34.16770000     -74.22640000
H      -45.18690000     -33.91940000     -74.25210000
H      -46.46450000     -34.66060000     -75.16430000
S      -45.67460000     -35.01540000     -68.23600000
S      -47.28970000     -32.66320000     -74.04900000
C      -46.66730000     -33.66830000     -68.97020000
H      -46.95380000     -33.98740000     -70.03030000
H      -47.69260000     -33.70480000     -68.51640000
C      -47.67520000     -32.30720000     -72.28400000
H      -47.26090000     -33.14490000     -71.75950000
H      -48.69880000     -32.17130000     -72.26130000
C      -46.93290000     -30.97920000     -71.83460000
H      -47.34580000     -30.22900000     -72.55880000
H      -47.27350000     -30.66980000     -70.86980000
C      -46.02110000     -32.20590000     -68.70060000
H      -45.99760000     -32.05030000     -67.63200000
H      -46.71610000     -31.49470000     -69.14990000
C      -44.70180000     -32.00920000     -69.40140000
C      -43.54080000     -32.44540000     -68.90380000
C      -44.49560000     -31.66830000     -70.78680000
H      -43.54840000     -32.94380000     -67.94440000
C      -43.19080000     -31.83510000     -71.29830000
C      -45.46690000     -31.19770000     -71.87380000
C      -44.77020000     -30.94800000     -72.97560000
S      -42.19740000     -32.54980000     -70.09040000
S      -43.06400000     -31.41900000     -72.96710000
H      -45.16470000     -30.53140000     -73.87960000
