40
Properties=species:S:1:pos:R:3 #=T CELL(abcABC):=T 1.889726e+02=T 90.00000=T Traj:=T positionsangstrom=T Step:=T 0=T Bead:=T pbc="F F F"
C      -42.24870000     -32.64750000     -69.19000000
C      -43.16130000     -33.56600000     -68.64450000
C      -44.35790000     -33.11910000     -68.17130000
C      -44.71920000     -31.79810000     -68.21270000
C      -43.85800000     -30.88050000     -68.84800000
C      -42.56760000     -31.35050000     -69.29230000
H      -41.29390000     -32.97820000     -69.62170000
H      -45.16230000     -33.82550000     -67.85450000
H      -44.12960000     -29.82050000     -68.90010000
H      -41.94170000     -30.65780000     -69.81420000
C      -46.05500000     -31.31520000     -67.73730000
H      -46.03480000     -30.22090000     -67.50340000
H      -46.35620000     -31.83560000     -66.86660000
C      -42.83910000     -35.00190000     -68.51800000
H      -41.91920000     -35.36390000     -68.98360000
H      -42.73500000     -35.28700000     -67.46680000
S      -47.47620000     -31.49090000     -68.98930000
S      -44.23030000     -36.16470000     -69.06770000
C      -46.61770000     -31.97050000     -70.55610000
H      -45.96990000     -31.16190000     -70.96090000
H      -45.89660000     -32.83030000     -70.40620000
C      -44.40470000     -36.02220000     -70.92690000
H      -44.16910000     -36.96040000     -71.39550000
H      -43.56940000     -35.41020000     -71.18950000
C      -45.66120000     -35.28220000     -71.44950000
H      -46.54620000     -35.83290000     -71.23050000
H      -45.83510000     -34.34210000     -71.04360000
C      -47.67660000     -32.49270000     -71.52670000
H      -48.37810000     -31.65850000     -71.63740000
H      -48.19410000     -33.35480000     -71.14620000
C      -47.16920000     -32.77810000     -72.96910000
C      -47.58700000     -31.93620000     -74.01610000
C      -46.24930000     -33.82440000     -73.45540000
H      -48.12880000     -31.03200000     -73.89070000
C      -45.88520000     -33.63970000     -74.78320000
C      -45.50760000     -34.96750000     -72.90420000
C      -44.67680000     -35.54260000     -73.83750000
S      -46.62600000     -32.16860000     -75.46570000
S      -44.66960000     -34.78810000     -75.42110000
H      -43.92960000     -36.35580000     -73.64900000
