40
Properties=species:S:1:pos:R:3 #=T CELL(abcABC):=T 1.889726e+02=T 90.00000=T Traj:=T positionsangstrom=T Step:=T 0=T Bead:=T pbc="F F F"
C      -41.93910000     -33.07880000     -68.83980000
C      -43.05950000     -33.80450000     -68.41990000
C      -44.27240000     -33.15990000     -68.18980000
C      -44.40920000     -31.74240000     -68.29100000
C      -43.28070000     -31.05830000     -68.62750000
C      -42.10520000     -31.73220000     -68.89260000
H      -40.94280000     -33.48830000     -69.05820000
H      -45.16880000     -33.73070000     -68.04050000
H      -43.37440000     -29.94130000     -68.65220000
H      -41.16500000     -31.23220000     -69.25380000
C      -45.73010000     -31.06850000     -68.05260000
H      -45.80300000     -30.01240000     -68.51150000
H      -45.89040000     -30.99800000     -66.91660000
C      -43.01860000     -35.31680000     -68.35700000
H      -42.00690000     -35.77580000     -68.53270000
H      -43.37400000     -35.71760000     -67.40390000
S      -47.28640000     -31.97100000     -68.71020000
S      -44.12750000     -36.24210000     -69.55840000
C      -46.97690000     -31.90910000     -70.50490000
H      -47.18300000     -30.98220000     -70.94620000
H      -45.93110000     -32.01500000     -70.72020000
C      -44.52600000     -35.15500000     -71.03910000
H      -43.67790000     -34.99840000     -71.66570000
H      -44.81150000     -34.09370000     -70.77450000
C      -45.62050000     -35.79920000     -71.95890000
H      -45.19860000     -36.73470000     -72.26600000
H      -46.50870000     -35.86420000     -71.34610000
C      -47.74790000     -32.92720000     -71.35350000
H      -48.83250000     -32.73840000     -71.35100000
H      -47.66210000     -33.99560000     -70.99830000
C      -47.36980000     -32.87680000     -72.86660000
C      -47.85250000     -31.90330000     -73.71040000
C      -46.38270000     -33.73090000     -73.46830000
H      -48.59260000     -31.20450000     -73.48360000
C      -46.03780000     -33.31990000     -74.76470000
C      -45.65100000     -34.92430000     -73.17150000
C      -44.68690000     -35.20910000     -74.08880000
S      -47.09630000     -31.93630000     -75.30620000
S      -44.70540000     -34.22080000     -75.51740000
H      -44.12840000     -36.17120000     -74.17920000
