40
Properties=species:S:1:pos:R:3 #=T CELL(abcABC):=T 1.889726e+02=T 90.00000=T Traj:=T positionsangstrom=T Step:=T 0=T Bead:=T pbc="F F F"
C      -42.33900000     -32.90320000     -69.20790000
C      -43.32290000     -33.63960000     -68.60140000
C      -44.43540000     -33.06820000     -68.10450000
C      -44.65320000     -31.67320000     -68.21950000
C      -43.65860000     -30.89260000     -68.85070000
C      -42.56520000     -31.52590000     -69.45050000
H      -41.42070000     -33.33890000     -69.59730000
H      -45.12520000     -33.65290000     -67.53430000
H      -43.79800000     -29.81150000     -69.01130000
H      -41.77280000     -30.83730000     -69.83380000
C      -45.93560000     -31.10420000     -67.76430000
H      -46.01170000     -30.02300000     -67.87670000
H      -46.17330000     -31.43900000     -66.66980000
C      -43.12280000     -35.12420000     -68.34500000
H      -42.09130000     -35.41290000     -68.65990000
H      -43.20870000     -35.34210000     -67.24990000
S      -47.26460000     -31.99290000     -68.78290000
S      -44.37160000     -36.19250000     -69.17540000
C      -46.54120000     -32.04070000     -70.52570000
H      -46.33420000     -30.97330000     -70.71470000
H      -45.55980000     -32.55130000     -70.37780000
C      -44.13930000     -35.58070000     -70.91340000
H      -43.42260000     -36.16860000     -71.46570000
H      -43.66640000     -34.56140000     -70.77480000
C      -45.55980000     -35.37060000     -71.59680000
H      -46.14100000     -36.24970000     -71.47610000
H      -46.09870000     -34.62350000     -70.97420000
C      -47.58460000     -32.64850000     -71.45290000
H      -48.42220000     -31.96890000     -71.36580000
H      -48.04060000     -33.57110000     -71.08050000
C      -47.06290000     -32.72280000     -72.89470000
C      -47.49540000     -31.80060000     -73.84250000
C      -46.18330000     -33.73790000     -73.49900000
H      -48.30240000     -31.07460000     -73.80340000
C      -45.98790000     -33.47570000     -74.86480000
C      -45.53500000     -34.92650000     -73.02490000
C      -44.77610000     -35.48480000     -74.01950000
S      -46.71610000     -32.01940000     -75.41890000
S      -44.79130000     -34.59270000     -75.55010000
H      -44.19610000     -36.38160000     -73.95950000
