40
Properties=species:S:1:pos:R:3 #=T CELL(abcABC):=T 1.889726e+02=T 90.00000=T Traj:=T positionsangstrom=T Step:=T 0=T Bead:=T pbc="F F F"
C      -41.98150000     -33.37010000     -68.97260000
C      -43.05210000     -34.06510000     -68.37950000
C      -44.16100000     -33.30910000     -67.99450000
C      -44.23340000     -31.94490000     -68.00240000
C      -43.10050000     -31.22470000     -68.50850000
C      -41.99910000     -31.91570000     -68.96070000
H      -41.06060000     -33.84490000     -69.48670000
H      -45.01880000     -33.81690000     -67.55980000
H      -43.13990000     -30.16430000     -68.48010000
H      -41.19620000     -31.50370000     -69.51730000
C      -45.52260000     -31.27430000     -67.73830000
H      -45.43820000     -30.27230000     -67.94180000
H      -45.79280000     -31.21680000     -66.71020000
C      -43.05060000     -35.56000000     -68.54010000
H      -42.06660000     -35.76460000     -69.08050000
H      -43.18640000     -36.14330000     -67.65790000
S      -47.02620000     -32.00710000     -68.68960000
S      -44.44290000     -36.16430000     -69.61320000
C      -46.44780000     -32.20100000     -70.37300000
H      -46.31020000     -31.23650000     -70.85290000
H      -45.47390000     -32.77650000     -70.49110000
C      -44.12270000     -35.26500000     -71.23550000
H      -43.16850000     -35.59490000     -71.64570000
H      -44.00390000     -34.24310000     -70.97570000
C      -45.24330000     -35.63260000     -72.18900000
H      -44.96050000     -36.64280000     -72.55040000
H      -46.18400000     -35.74590000     -71.68150000
C      -47.52370000     -33.02860000     -71.19730000
H      -48.45690000     -32.79740000     -70.83970000
H      -47.25310000     -34.06970000     -71.02290000
C      -47.23420000     -32.81490000     -72.69740000
C      -47.83870000     -31.78710000     -73.34420000
C      -46.26540000     -33.55810000     -73.47610000
H      -48.61140000     -31.11170000     -72.82480000
C      -46.22340000     -32.93890000     -74.74140000
C      -45.43880000     -34.77250000     -73.38560000
C      -44.86310000     -35.08250000     -74.55360000
S      -47.43210000     -31.73540000     -75.03380000
S      -45.34560000     -33.97460000     -75.87300000
H      -44.30530000     -36.04430000     -74.71470000
