40
Properties=species:S:1:pos:R:3 #=T CELL(abcABC):=T 1.889726e+02=T 90.00000=T Traj:=T positionsangstrom=T Step:=T 0=T Bead:=T pbc="F F F"
C      -41.85210000     -33.48200000     -69.02860000
C      -42.97200000     -34.21720000     -68.82260000
C      -44.10600000     -33.57330000     -68.31030000
C      -44.09430000     -32.14280000     -68.27310000
C      -42.87840000     -31.43030000     -68.34560000
C      -41.74620000     -32.14780000     -68.81100000
H      -40.95370000     -33.95160000     -69.51910000
H      -45.07830000     -34.05380000     -67.86100000
H      -42.97880000     -30.39230000     -68.28550000
H      -40.81320000     -31.71210000     -69.15560000
C      -45.29820000     -31.34010000     -67.70100000
H      -45.31270000     -30.22410000     -67.67890000
H      -45.38870000     -31.49620000     -66.57220000
C      -42.89480000     -35.75470000     -68.87210000
H      -41.91290000     -36.13850000     -69.13640000
H      -43.06140000     -36.11780000     -67.93880000
S      -46.85430000     -31.80590000     -68.45470000
S      -44.32600000     -36.44220000     -69.98390000
C      -46.62690000     -31.67220000     -70.27350000
H      -47.07640000     -30.78980000     -70.60180000
H      -45.57880000     -31.59560000     -70.41690000
C      -44.61170000     -35.11990000     -71.18490000
H      -43.71950000     -34.76860000     -71.81500000
H      -44.97400000     -34.21400000     -70.66020000
C      -45.70130000     -35.67020000     -72.10570000
H      -45.38660000     -36.67400000     -72.43960000
H      -46.66060000     -35.76590000     -71.67770000
C      -47.28850000     -32.80220000     -71.03740000
H      -48.33850000     -32.67910000     -70.87310000
H      -46.99090000     -33.77000000     -70.66670000
C      -47.02930000     -32.54320000     -72.52280000
C      -47.41670000     -31.39980000     -73.20580000
C      -46.45220000     -33.50950000     -73.43930000
H      -47.94200000     -30.51590000     -72.71000000
C      -46.59050000     -33.04780000     -74.75590000
C      -45.84880000     -34.80710000     -73.32980000
C      -45.29930000     -35.29770000     -74.51320000
S      -47.22160000     -31.46940000     -74.92430000
S      -45.65130000     -34.14510000     -75.80200000
H      -44.79160000     -36.18890000     -74.54990000
