40
Properties=species:S:1:pos:R:3 #=T CELL(abcABC):=T 1.889726e+02=T 90.00000=T Traj:=T positionsangstrom=T Step:=T 0=T Bead:=T pbc="F F F"
C      -41.79180000     -33.40380000     -68.94240000
C      -42.93030000     -34.14260000     -68.55740000
C      -44.09550000     -33.49150000     -68.08490000
C      -44.15870000     -32.10700000     -68.20130000
C      -43.04690000     -31.37780000     -68.56690000
C      -41.82110000     -32.02520000     -68.93340000
H      -40.84720000     -33.85840000     -69.21200000
H      -45.00690000     -34.02010000     -67.88430000
H      -43.23790000     -30.25910000     -68.63460000
H      -40.87550000     -31.44430000     -68.99570000
C      -45.38030000     -31.36220000     -67.66830000
H      -45.27630000     -30.26880000     -67.83910000
H      -45.48330000     -31.87610000     -66.65580000
C      -42.89170000     -35.71730000     -68.64830000
H      -41.94540000     -35.97940000     -69.10300000
H      -42.91400000     -36.15150000     -67.67140000
S      -46.94210000     -31.82560000     -68.56220000
S      -44.33310000     -36.33960000     -69.62630000
C      -46.40770000     -31.89570000     -70.36160000
H      -46.63290000     -30.87430000     -70.63400000
H      -45.40090000     -32.06530000     -70.35720000
C      -44.44500000     -35.14070000     -71.16140000
H      -43.44610000     -34.99790000     -71.64890000
H      -44.81110000     -34.16650000     -70.76620000
C      -45.46950000     -35.68810000     -72.18140000
H      -45.23530000     -36.75140000     -72.33030000
H      -46.43270000     -35.68250000     -71.75590000
C      -47.35160000     -32.86120000     -71.08010000
H      -48.37340000     -32.73190000     -70.77420000
H      -47.09720000     -33.90680000     -70.66870000
C      -47.23390000     -32.77680000     -72.62310000
C      -47.81060000     -31.71450000     -73.21460000
C      -46.46920000     -33.61550000     -73.53630000
H      -48.45090000     -30.99330000     -72.63970000
C      -46.51810000     -33.06010000     -74.80130000
C      -45.66290000     -34.83790000     -73.45040000
C      -45.12100000     -35.06860000     -74.67810000
S      -47.31580000     -31.53980000     -74.96570000
S      -45.53290000     -34.00540000     -75.95440000
H      -44.44930000     -35.95350000     -74.88530000
