40
Properties=species:S:1:pos:R:3 #=T CELL(abcABC):=T 1.889726e+02=T 90.00000=T Traj:=T positionsangstrom=T Step:=T 0=T Bead:=T pbc="F F F"
C      -41.78480000     -33.63390000     -69.18730000
C      -42.95310000     -34.38900000     -68.81420000
C      -44.07080000     -33.77510000     -68.20240000
C      -44.06450000     -32.40820000     -67.98730000
C      -42.95530000     -31.61760000     -68.46170000
C      -41.86530000     -32.19410000     -69.07790000
H      -40.90600000     -34.16800000     -69.48980000
H      -44.87850000     -34.37810000     -67.97550000
H      -43.03550000     -30.55120000     -68.35510000
H      -40.95880000     -31.65100000     -69.20630000
C      -45.30300000     -31.69980000     -67.37140000
H      -44.98550000     -30.64810000     -67.04560000
H      -45.66540000     -32.10100000     -66.39110000
C      -42.95620000     -35.81570000     -69.08350000
H      -42.05590000     -36.15550000     -69.62610000
H      -42.97360000     -36.46580000     -68.19590000
S      -46.88130000     -31.66580000     -68.42360000
S      -44.49640000     -36.50460000     -69.83530000
C      -46.28700000     -31.61030000     -70.22250000
H      -46.20580000     -30.52780000     -70.50590000
H      -45.32850000     -32.19930000     -70.21760000
C      -44.44160000     -35.54190000     -71.44340000
H      -43.73840000     -35.96190000     -72.16630000
H      -44.16100000     -34.46610000     -71.31260000
C      -45.83780000     -35.59310000     -71.97260000
H      -46.08230000     -36.56980000     -72.28620000
H      -46.56830000     -35.25460000     -71.22620000
C      -47.34220000     -32.42200000     -71.11970000
H      -48.36310000     -31.99680000     -71.02580000
H      -47.25490000     -33.42880000     -70.79580000
C      -46.85640000     -32.24840000     -72.57180000
C      -46.88510000     -31.04930000     -73.23580000
C      -46.38230000     -33.31350000     -73.44020000
H      -47.13800000     -30.07660000     -72.90910000
C      -46.36690000     -32.92000000     -74.76350000
C      -46.04570000     -34.73330000     -73.27340000
C      -45.93400000     -35.36130000     -74.49000000
S      -46.77750000     -31.22880000     -74.93460000
S      -46.06960000     -34.26250000     -75.87590000
H      -45.66720000     -36.45160000     -74.64950000
