40
Properties=species:S:1:pos:R:3 #=T CELL(abcABC):=T 1.889726e+02=T 90.00000=T Traj:=T positionsangstrom=T Step:=T 0=T Bead:=T pbc="F F F"
C      -47.52980000     -35.54500000     -73.06260000
C      -46.42740000     -34.71640000     -72.99220000
C      -45.47850000     -34.93950000     -72.00800000
C      -45.63960000     -35.94790000     -71.08080000
C      -46.77840000     -36.74910000     -71.16950000
C      -47.72710000     -36.58550000     -72.14620000
H      -48.34360000     -35.27960000     -73.74480000
H      -44.67350000     -34.20190000     -71.79050000
H      -46.83030000     -37.60790000     -70.53120000
H      -48.62600000     -37.18630000     -72.13570000
C      -44.70370000     -36.24500000     -69.92900000
H      -43.87460000     -35.57030000     -70.01510000
H      -44.56810000     -37.38660000     -69.80320000
C      -46.16640000     -33.57430000     -74.01820000
H      -45.14280000     -33.16960000     -73.98100000
H      -46.31960000     -33.98990000     -74.97030000
S      -45.50190000     -35.74560000     -68.32730000
S      -47.38210000     -32.08140000     -73.87140000
C      -46.41580000     -34.09190000     -68.69440000
H      -46.79730000     -34.04020000     -69.72580000
H      -47.19500000     -34.02090000     -67.90610000
C      -47.82900000     -32.12040000     -72.10750000
H      -47.77010000     -33.15440000     -71.79250000
H      -48.88520000     -31.86270000     -71.95610000
C      -46.90250000     -31.16660000     -71.34340000
H      -47.21290000     -30.20620000     -71.65380000
H      -47.13710000     -31.33740000     -70.21950000
C      -45.52840000     -32.85340000     -68.57170000
H      -45.16990000     -32.91000000     -67.55770000
H      -46.17490000     -31.91750000     -68.60630000
C      -44.42230000     -32.78660000     -69.64450000
C      -43.20800000     -33.34770000     -69.39690000
C      -44.39810000     -31.88520000     -70.82590000
H      -42.88410000     -33.76870000     -68.48870000
C      -43.17900000     -31.73680000     -71.41010000
C      -45.41200000     -31.21450000     -71.58460000
C      -44.89490000     -30.59200000     -72.73580000
S      -41.94640000     -32.70050000     -70.50110000
S      -43.18280000     -30.82790000     -72.90120000
H      -45.47090000     -30.03880000     -73.48350000
