40
Properties=species:S:1:pos:R:3 #=T CELL(abcABC):=T 1.889726e+02=T 90.00000=T Traj:=T positionsangstrom=T Step:=T 0=T Bead:=T pbc="F F F"
C      -41.49860000     -34.09500000     -70.69560000
C      -41.94830000     -32.76300000     -70.64720000
C      -42.95240000     -32.41100000     -69.62900000
C      -43.21040000     -33.28540000     -68.58200000
C      -42.73720000     -34.60960000     -68.71370000
C      -41.88790000     -35.03990000     -69.69630000
H      -40.88630000     -34.42630000     -71.52830000
H      -43.35080000     -31.40560000     -69.46970000
H      -43.00590000     -35.30860000     -67.84880000
H      -41.61510000     -36.07400000     -69.72430000
C      -44.28280000     -32.99130000     -67.55130000
H      -43.89540000     -32.30260000     -66.84650000
H      -44.64570000     -33.84780000     -67.00570000
C      -41.59570000     -31.85730000     -71.80830000
H      -40.85080000     -31.11500000     -71.58560000
H      -41.14910000     -32.37970000     -72.73440000
S      -45.77650000     -32.14120000     -68.16840000
S      -43.06130000     -30.85690000     -72.41060000
C      -46.77900000     -33.44910000     -68.99620000
H      -47.12650000     -34.15870000     -68.16180000
H      -47.58870000     -32.88750000     -69.50160000
C      -44.36280000     -32.05420000     -72.92540000
H      -44.17370000     -33.14420000     -72.59020000
H      -44.36590000     -32.11390000     -73.98600000
C      -45.77280000     -31.65550000     -72.30040000
H      -45.80400000     -31.76060000     -71.17840000
H      -46.10020000     -30.60970000     -72.51750000
C      -45.94210000     -34.20020000     -70.00230000
H      -45.55720000     -35.15870000     -69.59230000
H      -45.08000000     -33.60450000     -70.30440000
C      -46.71570000     -34.69750000     -71.26900000
C      -47.20810000     -35.97650000     -71.33570000
C      -47.09440000     -33.88800000     -72.44090000
H      -47.02460000     -36.69520000     -70.64770000
C      -47.85820000     -34.63720000     -73.32030000
C      -46.78400000     -32.57520000     -72.90060000
C      -47.42270000     -32.32090000     -74.05460000
S      -48.08900000     -36.34020000     -72.82240000
S      -48.35170000     -33.65500000     -74.66230000
H      -47.38480000     -31.34260000     -74.53080000
