40
Properties=species:S:1:pos:R:3 #=T CELL(abcABC):=T 1.889726e+02=T 90.00000=T Traj:=T positionsangstrom=T Step:=T 0=T Bead:=T pbc="F F F"
C      -47.50280000     -35.57250000     -73.15800000
C      -46.37230000     -34.75280000     -73.14940000
C      -45.50390000     -35.01510000     -72.09630000
C      -45.78110000     -35.92650000     -71.05540000
C      -46.91810000     -36.73310000     -71.15350000
C      -47.81650000     -36.52470000     -72.21230000
H      -48.18050000     -35.46310000     -74.03050000
H      -44.54900000     -34.56360000     -72.18400000
H      -47.10580000     -37.48950000     -70.40520000
H      -48.72710000     -37.13780000     -72.24870000
C      -44.73750000     -36.11360000     -70.00660000
H      -43.90980000     -35.54420000     -70.20070000
H      -44.29600000     -37.16220000     -70.05130000
C      -46.26080000     -33.55160000     -73.97980000
H      -45.30290000     -33.06860000     -73.81550000
H      -46.22280000     -33.87410000     -75.05910000
S      -45.28240000     -35.70710000     -68.28950000
S      -47.66050000     -32.41200000     -73.64330000
C      -46.28060000     -34.20120000     -68.73440000
H      -46.80380000     -34.39460000     -69.63530000
H      -47.18210000     -34.16330000     -68.01630000
C      -47.79050000     -32.11610000     -71.83710000
H      -47.44140000     -33.01750000     -71.26890000
H      -48.85370000     -31.94010000     -71.66040000
C      -46.89980000     -30.89330000     -71.37470000
H      -47.13330000     -30.01260000     -71.92780000
H      -47.05850000     -30.58930000     -70.31090000
C      -45.53480000     -32.82800000     -68.64570000
H      -45.11600000     -32.63070000     -67.66140000
H      -46.23470000     -32.04030000     -68.83250000
C      -44.33540000     -32.59900000     -69.56120000
C      -42.98760000     -32.94980000     -69.31080000
C      -44.47940000     -31.93460000     -70.84050000
H      -42.59690000     -33.57070000     -68.55570000
C      -43.24300000     -31.88470000     -71.51840000
C      -45.46100000     -31.16650000     -71.59330000
C      -44.82620000     -30.50700000     -72.67580000
S      -41.90350000     -32.62690000     -70.62700000
S      -43.16000000     -30.95520000     -72.94720000
H      -45.49960000     -29.85460000     -73.31650000
