40
Properties=species:S:1:pos:R:3 #=T CELL(abcABC):=T 1.889726e+02=T 90.00000=T Traj:=T positionsangstrom=T Step:=T 0=T Bead:=T pbc="F F F"
C      -47.46200000     -36.07890000     -72.95210000
C      -46.62770000     -34.92850000     -73.04740000
C      -45.39570000     -34.85390000     -72.30830000
C      -45.08320000     -35.90280000     -71.42080000
C      -45.89440000     -37.02650000     -71.33100000
C      -47.15760000     -37.04480000     -72.02420000
H      -48.38490000     -36.01690000     -73.54500000
H      -44.68050000     -34.01530000     -72.46050000
H      -45.63110000     -37.73560000     -70.55190000
H      -47.73910000     -37.94780000     -71.96200000
C      -43.94850000     -35.66410000     -70.42230000
H      -43.14650000     -34.87490000     -70.75000000
H      -43.39560000     -36.57740000     -70.31780000
C      -46.92820000     -33.87990000     -74.03550000
H      -46.07080000     -33.29070000     -74.22610000
H      -47.23430000     -34.24780000     -74.99310000
S      -44.75570000     -35.36080000     -68.77520000
S      -48.26980000     -32.70740000     -73.34930000
C      -46.12810000     -34.13340000     -69.00310000
H      -46.41890000     -34.36820000     -70.08300000
H      -46.94150000     -34.42520000     -68.24390000
C      -47.87490000     -32.45950000     -71.57750000
H      -47.30160000     -33.36520000     -71.20020000
H      -48.84040000     -32.49490000     -71.05020000
C      -47.06750000     -31.21460000     -71.39100000
H      -47.51420000     -30.31630000     -71.91160000
H      -47.10380000     -30.97390000     -70.32870000
C      -45.67500000     -32.68380000     -68.61160000
H      -45.52910000     -32.68920000     -67.50690000
H      -46.54050000     -32.02470000     -68.88480000
C      -44.48850000     -32.19040000     -69.40030000
C      -43.21600000     -32.43520000     -69.02620000
C      -44.57900000     -31.74150000     -70.75460000
H      -42.91920000     -32.97010000     -68.17890000
C      -43.32290000     -31.47910000     -71.26440000
C      -45.61790000     -31.36890000     -71.66870000
C      -45.12730000     -31.09030000     -72.92820000
S      -42.03120000     -32.13530000     -70.28440000
S      -43.40930000     -31.08030000     -72.97550000
H      -45.74940000     -30.66370000     -73.74450000
