40
Properties=species:S:1:pos:R:3 #=T CELL(abcABC):=T 1.889726e+02=T 90.00000=T Traj:=T positionsangstrom=T Step:=T 0=T Bead:=T pbc="F F F"
C      -46.91850000     -36.08700000     -73.13450000
C      -46.04050000     -34.98900000     -72.92850000
C      -45.26010000     -34.85380000     -71.79520000
C      -45.36470000     -35.90310000     -70.82230000
C      -46.33670000     -36.93960000     -70.95990000
C      -47.08680000     -37.02840000     -72.15170000
H      -47.37870000     -36.24410000     -74.06060000
H      -44.61210000     -34.00570000     -71.55870000
H      -46.37240000     -37.77030000     -70.29350000
H      -47.77920000     -37.84880000     -72.27910000
C      -44.44740000     -36.01080000     -69.66550000
H      -43.57760000     -35.39760000     -69.88000000
H      -44.16150000     -37.13930000     -69.48310000
C      -46.07300000     -33.85550000     -73.95350000
H      -45.28200000     -33.10650000     -73.84590000
H      -45.90800000     -34.18830000     -75.00120000
S      -45.24750000     -35.48020000     -68.09460000
S      -47.70880000     -32.83370000     -73.85210000
C      -46.28150000     -34.05010000     -68.73350000
H      -46.51170000     -34.24180000     -69.78800000
H      -47.14650000     -33.89740000     -68.16580000
C      -47.89850000     -32.80550000     -72.01400000
H      -47.58560000     -33.71500000     -71.53010000
H      -48.99790000     -32.68610000     -71.77510000
C      -47.23720000     -31.62200000     -71.33310000
H      -47.75080000     -30.71820000     -71.55380000
H      -47.33480000     -31.74100000     -70.21400000
C      -45.54190000     -32.75060000     -68.63870000
H      -45.09750000     -32.74150000     -67.61100000
H      -46.20910000     -31.87700000     -68.69960000
C      -44.34790000     -32.49600000     -69.67790000
C      -43.00290000     -32.63220000     -69.45330000
C      -44.59860000     -31.88440000     -70.95650000
H      -42.62850000     -33.00210000     -68.54000000
C      -43.45570000     -31.51810000     -71.65900000
C      -45.78070000     -31.37880000     -71.67070000
C      -45.45770000     -30.66560000     -72.83660000
S      -42.00350000     -31.88610000     -70.71900000
S      -43.70100000     -30.54900000     -73.07610000
H      -46.13750000     -30.26080000     -73.61160000
