40
Properties=species:S:1:pos:R:3 #=T CELL(abcABC):=T 1.889726e+02=T 90.00000=T Traj:=T positionsangstrom=T Step:=T 0=T Bead:=T pbc="F F F"
C      -47.64700000     -36.05120000     -73.14910000
C      -46.84790000     -34.89970000     -73.07350000
C      -45.85870000     -34.86210000     -72.08420000
C      -45.54440000     -35.91200000     -71.20760000
C      -46.23080000     -37.11990000     -71.41890000
C      -47.30240000     -37.14800000     -72.31600000
H      -48.45570000     -36.08700000     -73.86970000
H      -45.33840000     -33.91700000     -72.03890000
H      -46.00100000     -38.03010000     -70.83910000
H      -47.79780000     -38.12830000     -72.54410000
C      -44.37050000     -35.76030000     -70.19480000
H      -43.74750000     -34.93590000     -70.58330000
H      -43.77310000     -36.75010000     -70.32710000
C      -46.97010000     -33.78230000     -74.05990000
H      -45.99100000     -33.22750000     -73.97250000
H      -47.23320000     -34.11010000     -75.11130000
S      -44.74630000     -35.48270000     -68.40860000
S      -48.24610000     -32.53120000     -73.57600000
C      -46.01440000     -34.13420000     -68.31830000
H      -46.57610000     -34.39870000     -69.18090000
H      -46.60480000     -34.21580000     -67.38120000
C      -47.85780000     -32.36190000     -71.79500000
H      -47.44370000     -33.30820000     -71.38670000
H      -48.78570000     -32.28270000     -71.26300000
C      -46.97520000     -31.14010000     -71.48380000
H      -47.34480000     -30.32200000     -72.06390000
H      -47.26920000     -30.65770000     -70.49760000
C      -45.54180000     -32.63660000     -68.47750000
H      -45.12120000     -32.14030000     -67.55400000
H      -46.45270000     -32.02140000     -68.62060000
C      -44.37050000     -32.46210000     -69.50890000
C      -43.07990000     -32.69260000     -69.10380000
C      -44.44410000     -31.78060000     -70.84040000
H      -42.83530000     -33.14030000     -68.14400000
C      -43.17370000     -31.55230000     -71.37970000
C      -45.46170000     -31.27030000     -71.75060000
C      -44.99730000     -30.92970000     -72.98000000
S      -41.86600000     -32.15860000     -70.34520000
S      -43.16050000     -31.01260000     -73.08550000
H      -45.55630000     -30.65020000     -73.87820000
