40
Properties=species:S:1:pos:R:3 #=T CELL(abcABC):=T 1.889726e+02=T 90.00000=T Traj:=T positionsangstrom=T Step:=T 0=T Bead:=T pbc="F F F"
C      -47.16450000     -36.18930000     -73.04690000
C      -46.27550000     -35.10410000     -73.00680000
C      -45.26230000     -35.04920000     -72.00900000
C      -45.17360000     -36.13990000     -71.17590000
C      -46.05430000     -37.26790000     -71.20290000
C      -47.11790000     -37.20930000     -72.11530000
H      -48.01890000     -36.31860000     -73.80860000
H      -44.55430000     -34.23500000     -71.85630000
H      -46.08960000     -38.00790000     -70.40640000
H      -47.64930000     -38.13150000     -72.24300000
C      -44.16510000     -36.08040000     -70.02170000
H      -43.22300000     -35.45820000     -70.26960000
H      -43.79260000     -37.02930000     -69.70180000
C      -46.42950000     -33.95540000     -73.96910000
H      -45.48300000     -33.39750000     -74.20890000
H      -46.74930000     -34.33840000     -74.97240000
S      -45.08530000     -35.47610000     -68.54460000
S      -47.80590000     -32.79100000     -73.55430000
C      -46.01640000     -33.98560000     -69.10130000
H      -45.98670000     -34.03580000     -70.13680000
H      -46.98780000     -34.10700000     -68.67210000
C      -47.84140000     -32.72110000     -71.70500000
H      -47.16970000     -33.56910000     -71.33300000
H      -48.84510000     -32.87140000     -71.41370000
C      -47.30790000     -31.39820000     -71.22350000
H      -47.87080000     -30.55610000     -71.72840000
H      -47.53500000     -31.31280000     -70.13670000
C      -45.48050000     -32.64370000     -68.53420000
H      -45.07930000     -32.77870000     -67.50430000
H      -46.38370000     -31.93090000     -68.50650000
C      -44.39110000     -32.10320000     -69.43010000
C      -43.04060000     -32.25710000     -69.20150000
C      -44.68250000     -31.55380000     -70.76300000
H      -42.53380000     -32.55280000     -68.31530000
C      -43.51890000     -31.53740000     -71.47640000
C      -45.83440000     -31.19360000     -71.54390000
C      -45.50340000     -30.71170000     -72.80320000
S      -41.99210000     -31.77310000     -70.54350000
S      -43.74000000     -30.84260000     -73.09630000
H      -46.16990000     -30.10130000     -73.43160000
