40
Properties=species:S:1:pos:R:3 #=T CELL(abcABC):=T 1.889726e+02=T 90.00000=T Traj:=T positionsangstrom=T Step:=T 0=T Bead:=T pbc="F F F"
C      -47.26760000     -36.24780000     -73.21400000
C      -46.59390000     -35.04440000     -73.19560000
C      -45.53090000     -34.82750000     -72.25290000
C      -45.16790000     -35.81390000     -71.27980000
C      -45.96280000     -36.97890000     -71.21830000
C      -46.92190000     -37.20510000     -72.21140000
H      -48.09790000     -36.35940000     -73.89800000
H      -44.97050000     -33.83870000     -72.33370000
H      -45.74490000     -37.68380000     -70.46180000
H      -47.39290000     -38.21170000     -72.26010000
C      -44.10500000     -35.44380000     -70.30550000
H      -43.66080000     -34.48550000     -70.52530000
H      -43.36430000     -36.21500000     -70.21600000
C      -46.98640000     -33.95980000     -74.12540000
H      -46.10670000     -33.34660000     -74.45110000
H      -47.42970000     -34.40550000     -75.05010000
S      -44.64830000     -35.34460000     -68.51820000
S      -48.39290000     -32.71390000     -73.53990000
C      -45.99890000     -34.18390000     -68.75190000
H      -46.33000000     -34.25840000     -69.77510000
H      -46.91470000     -34.33010000     -68.19860000
C      -48.06160000     -32.40250000     -71.73410000
H      -47.69640000     -33.37210000     -71.30290000
H      -48.99980000     -32.14260000     -71.30140000
C      -47.10500000     -31.23430000     -71.29600000
H      -47.41290000     -30.30970000     -71.66970000
H      -47.17820000     -31.12950000     -70.18340000
C      -45.56000000     -32.69620000     -68.52680000
H      -45.28210000     -32.57420000     -67.49480000
H      -46.35780000     -32.04260000     -68.77000000
C      -44.47370000     -32.36080000     -69.46900000
C      -43.21760000     -32.47740000     -69.05100000
C      -44.54590000     -31.88320000     -70.84850000
H      -42.95690000     -32.75160000     -68.01100000
C      -43.29200000     -31.78780000     -71.42940000
C      -45.68840000     -31.37520000     -71.69660000
C      -45.19910000     -30.79110000     -72.85160000
S      -41.96580000     -32.09630000     -70.27650000
S      -43.41200000     -30.96590000     -72.95290000
H      -45.73400000     -30.32390000     -73.66010000
