40
Properties=species:S:1:pos:R:3 #=T CELL(abcABC):=T 1.889726e+02=T 90.00000=T Traj:=T positionsangstrom=T Step:=T 0=T Bead:=T pbc="F F F"
C      -41.65730000     -33.48690000     -71.68310000
C      -42.23880000     -32.22570000     -71.26430000
C      -42.89290000     -32.13910000     -70.03220000
C      -42.82130000     -33.18090000     -69.11990000
C      -42.17150000     -34.35420000     -69.51420000
C      -41.59500000     -34.55490000     -70.78430000
H      -41.30750000     -33.56650000     -72.75880000
H      -43.44540000     -31.24010000     -69.80120000
H      -41.96420000     -35.12870000     -68.75610000
H      -41.17380000     -35.52450000     -71.00740000
C      -43.51220000     -33.12060000     -67.80260000
H      -42.98410000     -32.59070000     -66.98020000
H      -43.58880000     -34.07330000     -67.35210000
C      -42.20800000     -31.09270000     -72.23320000
H      -41.63080000     -30.24910000     -71.81530000
H      -41.74390000     -31.39690000     -73.16200000
S      -45.10560000     -32.16450000     -67.72190000
S      -43.83610000     -30.31600000     -72.58940000
C      -46.26880000     -33.34890000     -68.57510000
H      -45.75020000     -34.25920000     -68.21780000
H      -47.15610000     -33.16720000     -67.97540000
C      -44.75540000     -31.89910000     -73.02610000
H      -44.39000000     -32.62520000     -72.32270000
H      -44.33450000     -32.22110000     -74.00180000
C      -46.30100000     -31.75370000     -73.13070000
H      -46.77330000     -31.20620000     -72.31390000
H      -46.53220000     -31.14540000     -73.99030000
C      -46.24220000     -33.09200000     -70.09160000
H      -45.24050000     -32.71480000     -70.33570000
H      -46.82930000     -32.12460000     -70.27330000
C      -46.87760000     -34.22050000     -70.85750000
C      -47.36240000     -35.38370000     -70.27070000
C      -47.20840000     -34.13550000     -72.24760000
H      -47.13420000     -35.73710000     -69.25480000
C      -47.85630000     -35.27910000     -72.75260000
C      -46.97240000     -33.09410000     -73.30960000
C      -47.46180000     -33.63210000     -74.49710000
S      -48.02980000     -36.47910000     -71.46290000
S      -48.17990000     -35.17190000     -74.48110000
H      -47.49630000     -33.09870000     -75.44320000
