40
Properties=species:S:1:pos:R:3 #=T CELL(abcABC):=T 1.889726e+02=T 90.00000=T Traj:=T positionsangstrom=T Step:=T 0=T Bead:=T pbc="F F F"
C      -42.03340000     -33.18240000     -71.68420000
C      -42.49090000     -32.03620000     -71.00560000
C      -42.84120000     -32.15890000     -69.65240000
C      -42.96510000     -33.42570000     -69.01940000
C      -42.54820000     -34.56850000     -69.71930000
C      -42.12140000     -34.42380000     -71.03550000
H      -41.71310000     -33.12010000     -72.68840000
H      -43.15920000     -31.23780000     -69.18050000
H      -42.51750000     -35.50440000     -69.26920000
H      -41.78160000     -35.31270000     -71.54470000
C      -43.46830000     -33.46700000     -67.61030000
H      -42.87030000     -32.78660000     -67.02080000
H      -43.42250000     -34.48580000     -67.12200000
C      -42.33020000     -30.73390000     -71.80920000
H      -41.80300000     -29.91880000     -71.30390000
H      -41.63430000     -30.93400000     -72.67230000
S      -45.17910000     -32.90840000     -67.38860000
S      -43.96310000     -30.10930000     -72.34210000
C      -46.14260000     -34.01320000     -68.57750000
H      -45.67120000     -34.96960000     -68.60590000
H      -47.15240000     -34.13810000     -68.08160000
C      -44.77720000     -31.64080000     -72.97670000
H      -44.30680000     -32.58250000     -72.60680000
H      -44.59580000     -31.48770000     -74.16470000
C      -46.31180000     -31.59570000     -72.70790000
H      -46.50610000     -31.38660000     -71.72970000
H      -46.73960000     -30.75570000     -73.33990000
C      -46.17750000     -33.39100000     -69.97000000
H      -45.23470000     -32.93050000     -70.25520000
H      -46.85160000     -32.55080000     -70.00910000
C      -46.65580000     -34.38240000     -71.03390000
C      -47.22050000     -35.62670000     -70.73640000
C      -46.85500000     -34.09860000     -72.40320000
H      -47.10610000     -36.16040000     -69.79800000
C      -47.46680000     -35.14580000     -73.11000000
C      -46.87290000     -32.89440000     -73.17330000
C      -47.41640000     -33.01220000     -74.44970000
S      -47.90910000     -36.49420000     -72.07500000
S      -47.95710000     -34.67740000     -74.68050000
H      -47.47920000     -32.30510000     -75.19270000
