40
Properties=species:S:1:pos:R:3 #=T CELL(abcABC):=T 1.889726e+02=T 90.00000=T Traj:=T positionsangstrom=T Step:=T 0=T Bead:=T pbc="F F F"
C      -41.81530000     -33.35230000     -71.63300000
C      -42.48220000     -32.23590000     -71.16380000
C      -42.97360000     -32.26220000     -69.88560000
C      -42.92400000     -33.44480000     -69.07810000
C      -42.28240000     -34.60860000     -69.60750000
C      -41.75450000     -34.57530000     -70.90050000
H      -41.42390000     -33.34620000     -72.60760000
H      -43.43690000     -31.32480000     -69.52810000
H      -42.18950000     -35.50350000     -69.05470000
H      -41.16250000     -35.38400000     -71.35390000
C      -43.47460000     -33.35360000     -67.67250000
H      -42.64170000     -32.86520000     -67.22580000
H      -43.60930000     -34.35820000     -67.30050000
C      -42.47130000     -30.92300000     -71.94890000
H      -42.21520000     -30.10220000     -71.28360000
H      -41.70410000     -31.01650000     -72.73990000
S      -45.05190000     -32.46800000     -67.40860000
S      -44.06870000     -30.29990000     -72.78750000
C      -46.02930000     -33.42720000     -68.58300000
H      -45.54520000     -34.41640000     -68.56380000
H      -47.01730000     -33.47520000     -68.11320000
C      -44.90300000     -31.78570000     -73.34650000
H      -44.53190000     -32.73040000     -72.78930000
H      -44.59360000     -31.95470000     -74.38110000
C      -46.46570000     -31.62620000     -73.15170000
H      -46.76350000     -31.09720000     -72.30750000
H      -46.78560000     -31.08740000     -74.02010000
C      -46.21350000     -32.90620000     -69.97190000
H      -45.20710000     -32.76760000     -70.49470000
H      -46.86900000     -32.03690000     -69.95220000
C      -46.86690000     -34.04050000     -70.81280000
C      -47.10890000     -35.29540000     -70.34230000
C      -47.18050000     -33.96510000     -72.30230000
H      -47.05750000     -35.58390000     -69.32750000
C      -47.57460000     -35.23170000     -72.79230000
C      -47.17560000     -32.93620000     -73.29280000
C      -47.49850000     -33.46030000     -74.52440000
S      -47.71400000     -36.40920000     -71.55040000
S      -47.99910000     -35.16490000     -74.55190000
H      -47.39590000     -33.03740000     -75.52310000
