40
Properties=species:S:1:pos:R:3 #=T CELL(abcABC):=T 1.889726e+02=T 90.00000=T Traj:=T positionsangstrom=T Step:=T 0=T Bead:=T pbc="F F F"
C      -41.40190000     -35.05350000     -71.50830000
C      -42.37510000     -35.20710000     -70.44880000
C      -42.49280000     -34.23860000     -69.47810000
C      -41.76810000     -32.99820000     -69.63910000
C      -40.88040000     -32.81480000     -70.69430000
C      -40.69980000     -33.86000000     -71.61680000
H      -41.26960000     -35.92360000     -72.15140000
H      -43.27040000     -34.30380000     -68.72420000
H      -40.20600000     -31.95640000     -70.79050000
H      -39.88620000     -33.85290000     -72.30080000
C      -42.06560000     -31.88380000     -68.65980000
H      -41.62040000     -30.90040000     -68.92190000
H      -41.88660000     -32.20750000     -67.67890000
C      -43.18710000     -36.50950000     -70.46830000
H      -42.91820000     -37.21680000     -71.26740000
H      -42.93390000     -37.10390000     -69.56020000
S      -43.98010000     -31.78170000     -68.57170000
S      -45.02480000     -36.45120000     -70.11070000
C      -44.61230000     -31.95640000     -70.30140000
H      -44.26960000     -30.99480000     -70.76620000
H      -44.19150000     -32.93800000     -70.71340000
C      -45.92540000     -35.64730000     -71.52550000
H      -46.04940000     -36.32110000     -72.41630000
H      -45.31570000     -34.81340000     -71.78400000
C      -47.32280000     -35.14990000     -71.10000000
H      -47.92680000     -35.98970000     -70.92860000
H      -47.35250000     -34.79530000     -70.02650000
C      -46.14800000     -32.07970000     -70.18740000
H      -46.33860000     -31.25310000     -69.48250000
H      -46.44460000     -32.95630000     -69.72060000
C      -46.94690000     -31.80770000     -71.46140000
C      -46.91000000     -30.56100000     -72.09450000
C      -47.68900000     -32.74200000     -72.25720000
H      -46.40920000     -29.62350000     -71.76350000
C      -48.09760000     -32.23470000     -73.47970000
C      -47.99750000     -34.21300000     -72.06690000
C      -48.71660000     -34.68330000     -73.12140000
S      -47.74110000     -30.53760000     -73.65590000
S      -48.91460000     -33.46790000     -74.42610000
H      -48.88020000     -35.69030000     -73.48190000
