40
Properties=species:S:1:pos:R:3 #=T CELL(abcABC):=T 1.889726e+02=T 90.00000=T Traj:=T positionsangstrom=T Step:=T 0=T Bead:=T pbc="F F F"
C      -41.47190000     -33.31580000     -71.32230000
C      -42.05480000     -32.06290000     -71.21430000
C      -42.68230000     -31.72180000     -70.00230000
C      -42.77580000     -32.65080000     -68.94760000
C      -42.16950000     -33.89400000     -69.05430000
C      -41.56620000     -34.21700000     -70.24820000
H      -40.90460000     -33.63900000     -72.26960000
H      -43.02990000     -30.71820000     -69.83770000
H      -42.23760000     -34.65740000     -68.25370000
H      -41.20740000     -35.19410000     -70.35210000
C      -43.32930000     -32.19850000     -67.65760000
H      -42.98370000     -31.16170000     -67.39150000
H      -43.10530000     -32.97690000     -66.92490000
C      -41.97130000     -31.16120000     -72.34010000
H      -41.62200000     -30.17060000     -72.02110000
H      -41.25770000     -31.56520000     -73.10260000
S      -45.22720000     -32.16110000     -67.69390000
S      -43.59140000     -30.73720000     -73.14290000
C      -45.66660000     -33.75310000     -68.62440000
H      -44.78350000     -34.42930000     -68.56240000
H      -46.49010000     -34.34900000     -68.12900000
C      -44.55940000     -32.31430000     -73.08370000
H      -44.22120000     -32.94620000     -72.29090000
H      -44.33980000     -32.77500000     -73.95690000
C      -46.01850000     -32.06350000     -73.15920000
H      -46.27530000     -31.35910000     -72.31260000
H      -46.31200000     -31.46230000     -74.06380000
C      -46.04260000     -33.44560000     -70.14400000
H      -45.03970000     -33.29620000     -70.67320000
H      -46.53220000     -32.47050000     -70.10890000
C      -46.96600000     -34.43460000     -70.88970000
C      -47.72240000     -35.44680000     -70.31640000
C      -47.18590000     -34.33600000     -72.31470000
H      -47.63090000     -35.81590000     -69.29430000
C      -48.07720000     -35.35600000     -72.78000000
C      -46.88570000     -33.32250000     -73.27920000
C      -47.49100000     -33.62740000     -74.48930000
S      -48.63780000     -36.40340000     -71.52300000
S      -48.47990000     -35.08280000     -74.41870000
H      -47.58170000     -33.04450000     -75.36360000
