40
Properties=species:S:1:pos:R:3 #=T CELL(abcABC):=T 1.889726e+02=T 90.00000=T Traj:=T positionsangstrom=T Step:=T 0=T Bead:=T pbc="F F F"
C      -42.09380000     -35.40080000     -71.92420000
C      -42.59530000     -35.50500000     -70.64030000
C      -42.59390000     -34.35210000     -69.85620000
C      -42.14190000     -33.12560000     -70.33250000
C      -41.72930000     -32.99990000     -71.65680000
C      -41.79770000     -34.16050000     -72.47620000
H      -42.06920000     -36.31870000     -72.58160000
H      -43.11320000     -34.25730000     -68.85430000
H      -41.26000000     -32.03920000     -71.97180000
H      -41.60130000     -34.07650000     -73.52670000
C      -42.00380000     -31.97810000     -69.33540000
H      -41.39530000     -31.17780000     -69.69540000
H      -41.45190000     -32.42230000     -68.49520000
C      -43.11970000     -36.78980000     -70.11260000
H      -42.81320000     -37.55130000     -70.94220000
H      -42.66560000     -37.10480000     -69.18450000
S      -43.53820000     -31.30310000     -68.58610000
S      -44.98820000     -36.78190000     -69.90720000
C      -44.69170000     -30.80080000     -69.91390000
H      -45.15180000     -29.93370000     -69.59390000
H      -44.14110000     -30.70420000     -70.84140000
C      -45.67380000     -35.91600000     -71.45840000
H      -45.88770000     -36.67130000     -72.15770000
H      -44.84930000     -35.34590000     -71.92410000
C      -46.84870000     -35.02540000     -70.96460000
H      -47.60940000     -35.68230000     -70.59340000
H      -46.56970000     -34.40850000     -70.05830000
C      -45.71860000     -31.93970000     -70.14940000
H      -46.36090000     -31.97640000     -69.23560000
H      -45.17380000     -32.89890000     -70.21070000
C      -46.47870000     -31.70810000     -71.42920000
C      -46.80930000     -30.52630000     -72.08550000
C      -47.28090000     -32.73790000     -72.08080000
H      -46.33750000     -29.62510000     -71.62670000
C      -48.15510000     -32.24710000     -73.06080000
C      -47.39050000     -34.18090000     -72.06310000
C      -48.30730000     -34.68570000     -72.98970000
S      -47.97780000     -30.55690000     -73.29220000
S      -49.08730000     -33.46220000     -74.00330000
H      -48.61630000     -35.68590000     -73.17860000
