40
Properties=species:S:1:pos:R:3 #=T CELL(abcABC):=T 1.889726e+02=T 90.00000=T Traj:=T positionsangstrom=T Step:=T 0=T Bead:=T pbc="F F F"
C      -43.58400000     -34.18990000     -74.67530000
C      -44.19730000     -33.00710000     -74.32710000
C      -45.59570000     -33.03220000     -74.14840000
C      -46.25390000     -34.22780000     -74.25980000
C      -45.59540000     -35.47330000     -74.54050000
C      -44.22730000     -35.42770000     -74.78220000
H      -42.49210000     -34.12580000     -74.95060000
H      -46.10740000     -32.20770000     -73.54850000
H      -46.24190000     -36.38760000     -74.59280000
H      -43.56830000     -36.32630000     -74.89310000
C      -47.77320000     -34.32450000     -74.48390000
H      -48.12140000     -35.37000000     -74.56940000
H      -48.10640000     -33.87350000     -75.46850000
C      -43.53180000     -31.66360000     -74.34280000
H      -42.88890000     -31.51490000     -75.28710000
H      -44.16520000     -30.87970000     -74.18180000
S      -48.81940000     -33.41280000     -73.23580000
S      -42.24460000     -31.65440000     -72.99770000
C      -48.34000000     -33.78290000     -71.51880000
H      -49.03960000     -33.18660000     -70.93110000
H      -48.72180000     -34.76200000     -71.16850000
C      -42.85160000     -32.51720000     -71.53110000
H      -42.06090000     -32.57510000     -70.80430000
H      -43.19730000     -33.50090000     -71.69690000
C      -44.02030000     -31.75390000     -70.82940000
H      -43.52420000     -30.77610000     -70.68680000
H      -44.94700000     -31.64790000     -71.41870000
C      -46.90020000     -33.49260000     -71.18080000
H      -46.71910000     -32.47010000     -71.27040000
H      -46.18140000     -33.90490000     -71.88400000
C      -46.53980000     -33.91000000     -69.73370000
C      -47.24720000     -34.72910000     -68.94090000
C      -45.33540000     -33.29900000     -69.09680000
H      -48.21890000     -35.22690000     -69.09660000
C      -45.23230000     -33.67850000     -67.75360000
C      -44.30080000     -32.37540000     -69.53140000
C      -43.50720000     -32.03040000     -68.43790000
S      -46.39720000     -34.85940000     -67.33160000
S      -43.90420000     -32.86080000     -66.93280000
H      -42.77390000     -31.28260000     -68.49540000
