40
Properties=species:S:1:pos:R:3 #=T CELL(abcABC):=T 1.889726e+02=T 90.00000=T Traj:=T positionsangstrom=T Step:=T 0=T Bead:=T pbc="F F F"
C      -41.50830000     -33.42420000     -71.20020000
C      -42.11560000     -32.17970000     -71.16780000
C      -42.81540000     -31.73620000     -69.99900000
C      -42.82690000     -32.68160000     -68.90420000
C      -42.16260000     -33.94890000     -68.97150000
C      -41.47540000     -34.31620000     -70.10560000
H      -40.95950000     -33.65330000     -72.15220000
H      -43.33610000     -30.81140000     -69.96440000
H      -42.12830000     -34.57860000     -68.07610000
H      -40.92150000     -35.22220000     -70.18720000
C      -43.52820000     -32.28420000     -67.63120000
H      -43.42700000     -31.28470000     -67.41590000
H      -43.11240000     -32.83630000     -66.76480000
C      -42.01180000     -31.25490000     -72.37000000
H      -41.49690000     -30.32450000     -72.11430000
H      -41.26900000     -31.70140000     -73.03010000
S      -45.34300000     -32.27980000     -67.69240000
S      -43.59610000     -30.77660000     -73.13890000
C      -45.73340000     -33.68130000     -68.76890000
H      -44.90620000     -34.33200000     -68.85630000
H      -46.60710000     -34.30720000     -68.35900000
C      -44.44940000     -32.34580000     -73.54700000
H      -44.19870000     -33.22790000     -72.84440000
H      -44.12580000     -32.67450000     -74.61440000
C      -46.01390000     -32.09140000     -73.36240000
H      -46.14900000     -31.71900000     -72.36090000
H      -46.25330000     -31.30230000     -74.03270000
C      -46.11490000     -33.17160000     -70.18240000
H      -45.22260000     -32.83540000     -70.77410000
H      -46.80770000     -32.34120000     -70.11730000
C      -46.82280000     -34.20920000     -70.97820000
C      -47.29900000     -35.32320000     -70.35520000
C      -47.21410000     -34.12340000     -72.35350000
H      -47.10020000     -35.68940000     -69.36730000
C      -48.08990000     -35.20460000     -72.67810000
C      -46.91590000     -33.28690000     -73.45810000
C      -47.50810000     -33.76660000     -74.60240000
S      -48.44710000     -36.26350000     -71.30720000
S      -48.55280000     -35.17650000     -74.30330000
H      -47.81500000     -33.10480000     -75.43320000
