40
Properties=species:S:1:pos:R:3 #=T CELL(abcABC):=T 1.889726e+02=T 90.00000=T Traj:=T positionsangstrom=T Step:=T 0=T Bead:=T pbc="F F F"
C      -41.54400000     -33.79510000     -71.38890000
C      -42.17260000     -32.49910000     -71.43460000
C      -42.77030000     -32.03650000     -70.23430000
C      -42.86020000     -32.79870000     -69.06940000
C      -42.15380000     -33.99510000     -69.07380000
C      -41.59230000     -34.56910000     -70.23150000
H      -41.05530000     -34.20060000     -72.25830000
H      -43.20560000     -31.02580000     -70.28990000
H      -42.18660000     -34.60200000     -68.21300000
H      -41.08770000     -35.53890000     -70.18460000
C      -43.56610000     -32.17780000     -67.86210000
H      -42.83990000     -31.46070000     -67.40470000
H      -43.75600000     -32.97530000     -67.05770000
C      -42.12030000     -31.59180000     -72.61890000
H      -41.48440000     -30.71570000     -72.40640000
H      -41.68220000     -32.30500000     -73.35400000
S      -45.07890000     -31.23160000     -68.27890000
S      -43.79300000     -30.92110000     -73.13520000
C      -46.12070000     -32.58070000     -69.04210000
H      -46.64670000     -33.20040000     -68.26160000
H      -46.85690000     -31.99710000     -69.54150000
C      -44.85640000     -32.44350000     -73.51290000
H      -44.58010000     -33.29290000     -72.97040000
H      -44.69730000     -32.75140000     -74.52250000
C      -46.39280000     -32.01640000     -73.27810000
H      -46.30600000     -31.50160000     -72.35490000
H      -46.80300000     -31.30600000     -73.99890000
C      -45.47760000     -33.49010000     -70.13440000
H      -44.77340000     -34.23330000     -69.72600000
H      -44.99470000     -32.94280000     -70.94430000
C      -46.54920000     -34.31190000     -70.76750000
C      -46.94070000     -35.45730000     -70.18580000
C      -47.25380000     -34.14040000     -72.04230000
H      -46.50800000     -35.80820000     -69.26410000
C      -48.04520000     -35.28710000     -72.32260000
C      -47.28600000     -33.22150000     -73.12530000
C      -48.02480000     -33.72480000     -74.18250000
S      -48.03640000     -36.49560000     -71.05600000
S      -48.56290000     -35.39080000     -73.97230000
H      -47.89550000     -33.44530000     -75.22320000
